version 3
run DroneTriangleTurtle-0-20250608-23:26:09-369115
attr configname DroneTriangleTurtle
attr datetime 20250608-23:26:09
attr datetimef 20250608-232609
attr experiment DroneTriangleTurtle
attr inifile omnetpp.ini
attr iterationvars ""
attr iterationvarsd ""
attr iterationvarsf ""
attr measurement ""
attr network MobileNetwork
attr processid 369115
attr repetition 0
attr replication #0
attr resultdir results
attr runnumber 0
attr seedset 0
config image-path ../inet4.4/images
config extends "MobileNetwork, Area, Update"
config description "three drones flying to the corners of a triangle via TurtleMobility"
config *.numHosts 10
config *.hasEnvironment true
config *.hasVisualizer true
config *.environment.ground.typename FlatGround
config *.visualizer.mobilityVisualizer.displayMobility true
config *.host[*].mobility.typename TurtleMobility
config *.host[0].mobility.turtleScript "xmldoc(\"turtle1.xml\",\n                                         \"movements//movement[@id='1']\")"
config *.host[1].mobility.turtleScript "xmldoc(\"turtle1.xml\",\n                                         \"movements//movement[@id='2']\")"
config *.host[2].mobility.turtleScript "xmldoc(\"turtle1.xml\",\n                                         \"movements//movement[@id='3']\")"
config *.host[3].mobility.turtleScript "xmldoc(\"turtle1.xml\",\n                                         \"movements//movement[@id='4']\")"
config *.host[4].mobility.turtleScript "xmldoc(\"turtle1.xml\",\n                                         \"movements//movement[@id='5']\")"
config *.host[5].mobility.turtleScript "xmldoc(\"turtle1.xml\",\n                                         \"movements//movement[@id='6']\")"
config *.host[6].mobility.turtleScript "xmldoc(\"turtle1.xml\",\n                                         \"movements//movement[@id='7']\")"
config *.host[7].mobility.turtleScript "xmldoc(\"turtle1.xml\",\n                                         \"movements//movement[@id='8']\")"
config *.host[8].mobility.turtleScript "xmldoc(\"turtle1.xml\",\n                                         \"movements//movement[@id='9']\")"
config *.host[9].mobility.turtleScript "xmldoc(\"turtle1.xml\",\n                                         \"movements//movement[@id='10']\")"
config *.host[*].mobility.speed 5mps
config *.host[*].mobility.stopAtEnd false
config network MobileNetwork
config *.numHosts 2
config **.constraintAreaMinX 0m
config **.constraintAreaMinY 0m
config **.constraintAreaMinZ 0m
config **.constraintAreaMaxX 600m
config **.constraintAreaMaxY 600m
config **.constraintAreaMaxZ 0m
config **.updateInterval 1s

vector 0 MobileNetwork.host[0] coordX:vector ETV
attr interpolationmode linear
attr recordingmode vector
attr source xCoord(mobilityPos(mobilityStateChanged))
attr title "coord X"
vector 1 MobileNetwork.host[0] coordY:vector ETV
attr interpolationmode linear
attr recordingmode vector
attr source yCoord(mobilityPos(mobilityStateChanged))
attr title "coord Y"
vector 2 MobileNetwork.host[0] coordZ:vector ETV
attr interpolationmode linear
attr recordingmode vector
attr source zCoord(mobilityPos(mobilityStateChanged))
attr title "coord Z"
vector 3 MobileNetwork.host[1] coordX:vector ETV
attr interpolationmode linear
attr recordingmode vector
attr source xCoord(mobilityPos(mobilityStateChanged))
attr title "coord X"
vector 4 MobileNetwork.host[1] coordY:vector ETV
attr interpolationmode linear
attr recordingmode vector
attr source yCoord(mobilityPos(mobilityStateChanged))
attr title "coord Y"
vector 5 MobileNetwork.host[1] coordZ:vector ETV
attr interpolationmode linear
attr recordingmode vector
attr source zCoord(mobilityPos(mobilityStateChanged))
attr title "coord Z"
vector 6 MobileNetwork.host[2] coordX:vector ETV
attr interpolationmode linear
attr recordingmode vector
attr source xCoord(mobilityPos(mobilityStateChanged))
attr title "coord X"
vector 7 MobileNetwork.host[2] coordY:vector ETV
attr interpolationmode linear
attr recordingmode vector
attr source yCoord(mobilityPos(mobilityStateChanged))
attr title "coord Y"
vector 8 MobileNetwork.host[2] coordZ:vector ETV
attr interpolationmode linear
attr recordingmode vector
attr source zCoord(mobilityPos(mobilityStateChanged))
attr title "coord Z"
vector 9 MobileNetwork.host[3] coordX:vector ETV
attr interpolationmode linear
attr recordingmode vector
attr source xCoord(mobilityPos(mobilityStateChanged))
attr title "coord X"
vector 10 MobileNetwork.host[3] coordY:vector ETV
attr interpolationmode linear
attr recordingmode vector
attr source yCoord(mobilityPos(mobilityStateChanged))
attr title "coord Y"
vector 11 MobileNetwork.host[3] coordZ:vector ETV
attr interpolationmode linear
attr recordingmode vector
attr source zCoord(mobilityPos(mobilityStateChanged))
attr title "coord Z"
vector 12 MobileNetwork.host[4] coordX:vector ETV
attr interpolationmode linear
attr recordingmode vector
attr source xCoord(mobilityPos(mobilityStateChanged))
attr title "coord X"
vector 13 MobileNetwork.host[4] coordY:vector ETV
attr interpolationmode linear
attr recordingmode vector
attr source yCoord(mobilityPos(mobilityStateChanged))
attr title "coord Y"
vector 14 MobileNetwork.host[4] coordZ:vector ETV
attr interpolationmode linear
attr recordingmode vector
attr source zCoord(mobilityPos(mobilityStateChanged))
attr title "coord Z"
vector 15 MobileNetwork.host[5] coordX:vector ETV
attr interpolationmode linear
attr recordingmode vector
attr source xCoord(mobilityPos(mobilityStateChanged))
attr title "coord X"
vector 16 MobileNetwork.host[5] coordY:vector ETV
attr interpolationmode linear
attr recordingmode vector
attr source yCoord(mobilityPos(mobilityStateChanged))
attr title "coord Y"
vector 17 MobileNetwork.host[5] coordZ:vector ETV
attr interpolationmode linear
attr recordingmode vector
attr source zCoord(mobilityPos(mobilityStateChanged))
attr title "coord Z"
vector 18 MobileNetwork.host[6] coordX:vector ETV
attr interpolationmode linear
attr recordingmode vector
attr source xCoord(mobilityPos(mobilityStateChanged))
attr title "coord X"
vector 19 MobileNetwork.host[6] coordY:vector ETV
attr interpolationmode linear
attr recordingmode vector
attr source yCoord(mobilityPos(mobilityStateChanged))
attr title "coord Y"
vector 20 MobileNetwork.host[6] coordZ:vector ETV
attr interpolationmode linear
attr recordingmode vector
attr source zCoord(mobilityPos(mobilityStateChanged))
attr title "coord Z"
vector 21 MobileNetwork.host[7] coordX:vector ETV
attr interpolationmode linear
attr recordingmode vector
attr source xCoord(mobilityPos(mobilityStateChanged))
attr title "coord X"
vector 22 MobileNetwork.host[7] coordY:vector ETV
attr interpolationmode linear
attr recordingmode vector
attr source yCoord(mobilityPos(mobilityStateChanged))
attr title "coord Y"
vector 23 MobileNetwork.host[7] coordZ:vector ETV
attr interpolationmode linear
attr recordingmode vector
attr source zCoord(mobilityPos(mobilityStateChanged))
attr title "coord Z"
vector 24 MobileNetwork.host[8] coordX:vector ETV
attr interpolationmode linear
attr recordingmode vector
attr source xCoord(mobilityPos(mobilityStateChanged))
attr title "coord X"
vector 25 MobileNetwork.host[8] coordY:vector ETV
attr interpolationmode linear
attr recordingmode vector
attr source yCoord(mobilityPos(mobilityStateChanged))
attr title "coord Y"
vector 26 MobileNetwork.host[8] coordZ:vector ETV
attr interpolationmode linear
attr recordingmode vector
attr source zCoord(mobilityPos(mobilityStateChanged))
attr title "coord Z"
vector 27 MobileNetwork.host[9] coordX:vector ETV
attr interpolationmode linear
attr recordingmode vector
attr source xCoord(mobilityPos(mobilityStateChanged))
attr title "coord X"
vector 28 MobileNetwork.host[9] coordY:vector ETV
attr interpolationmode linear
attr recordingmode vector
attr source yCoord(mobilityPos(mobilityStateChanged))
attr title "coord Y"
vector 29 MobileNetwork.host[9] coordZ:vector ETV
attr interpolationmode linear
attr recordingmode vector
attr source zCoord(mobilityPos(mobilityStateChanged))
attr title "coord Z"
0	0	0	329.28810138255
0	0	0	329.28810138255
0	1	1	316.1473133321
0	11	2	303.00652528165
0	21	2.881988580817	291.41650027821
0	22	3	289.8657372312
0	31	3.881988580817	278.27571222776
0	32	4	276.72494918075
0	41	4.599056865609	268.85286987961
0	42	4.881988580817	265.13492417731
0	43	5	263.58416113029
0	51	5.599056865609	255.71208182916
0	52	5.881988580817	251.99413612686
0	53	6	250.44337307984
0	61	6.383029021182	245.41006989532
0	62	6.599056865609	242.57129377871
0	63	6.881988580817	238.85334807641
0	64	7	237.30258502939
0	71	7.383029021182	232.26928184486
0	72	7.599056865609	229.43050572825
0	73	7.881988580817	225.71256002595
0	74	8	224.16179697894
0	81	8.383029021182	219.12849379441
0	82	8.599056865609	216.2897176778
0	83	8.881988580817	212.5717719755
0	84	9	211.02100892849
0	91	9.383029021182	205.98770574396
0	92	9.599056865609	203.14892962735
0	93	9.881988580817	199.43098392505
0	94	10	197.88022087803
0	101	10.383029021182	192.84691769351
0	102	10.599056865609	190.0081415769
0	103	10.881988580817	186.2901958746
0	104	11	184.73943282758
0	111	11.383029021182	179.70612964306
0	112	11.599056865609	176.86735352645
0	113	11.868682727108	173.32425722757
0	114	11.881988580817	173.14940782415
0	115	12	171.59864477713
0	121	12.383029021182	166.5653415926
0	122	12.441869782668	165.79212761719
0	123	12.599056865609	163.72656547599
0	124	12.868682727108	160.18346917711
0	125	12.881988580817	160.00861977369
0	126	13	158.45785672668
0	131	13.383029021182	153.42455354215
0	132	13.441869782668	152.65133956674
0	133	13.599056865609	150.58577742554
0	134	13.643633904923	150
0	135	13.868682727108	150
0	136	13.881988580817	150
0	137	14	150
0	141	14.383029021182	150
0	142	14.441869782668	150
0	143	14.599056865609	150
0	144	14.643633904923	150
0	145	14.868682727108	150
0	146	14.881988580817	150
0	147	15	150
0	151	15.383029021182	150
0	152	15.441869782668	150
0	153	15.599056865609	150
0	154	15.643633904923	150
0	155	15.868682727108	150
0	156	15.881988580817	150
0	157	16	150
0	161	16.383029021182	150
0	162	16.441869782668	150
0	163	16.599056865609	150
0	164	16.643633904923	150
0	165	16.868682727108	150
0	166	16.881988580817	150
0	167	17	150
0	171	17.383029021182	150
0	172	17.441869782668	150
0	173	17.599056865609	150
0	174	17.643633904923	150
0	175	17.868682727108	150
0	176	17.881988580817	150
0	177	17.941653606661	150
0	178	18	150
0	181	18.325779660074	150
0	182	18.383029021182	150
0	183	18.441869782668	150
0	184	18.599056865609	150
0	185	18.626447097015	150
0	186	18.643633904923	150
0	187	18.868682727108	150
0	188	18.881988580817	150
0	189	18.941653606661	150
0	190	19	150
0	191	19.325779660074	150
0	192	19.383029021182	150
0	193	19.441869782668	150
0	194	19.599056865609	150
0	195	19.626447097015	150
0	196	19.643633904923	150
0	197	19.868682727108	150
0	198	19.881988580817	150
0	199	19.941653606661	150
0	200	20	150
0	201	20.325779660074	150
0	202	20.383029021182	150
0	203	20.441869782668	150
0	204	20.599056865609	150
0	205	20.626447097015	150
0	206	20.643633904923	150
0	207	20.868682727108	150
0	208	20.881988580817	150
0	209	20.941653606661	150
0	210	21	150
0	211	21.325779660074	150
0	212	21.383029021182	150
0	213	21.441869782668	150
0	214	21.599056865609	150
0	215	21.626447097015	150
0	216	21.643633904923	150
0	217	21.868682727108	150
0	218	21.881988580817	150
0	219	21.941653606661	150
0	220	22	150
0	221	22.325779660074	150
0	222	22.383029021182	150
0	223	22.441869782668	150
0	224	22.599056865609	150
0	225	22.626447097015	150
0	226	22.643633904923	150
0	227	22.868682727108	150
0	228	22.881988580817	150
0	229	22.941653606661	150
0	230	23	150
0	231	23.300863492173	150
0	232	23.325779660074	150
0	233	23.383029021182	150
0	234	23.441869782668	150
0	235	23.599056865609	150
0	236	23.626447097015	150
0	237	23.643633904923	150
0	238	23.868682727108	150
0	239	23.881988580817	150
0	240	23.941653606661	150
0	241	24.300863492173	150
0	242	24.325779660074	150
0	243	24.383029021182	150
0	244	24.441869782668	150
0	245	24.599056865609	150
0	246	24.626447097015	150
0	247	24.643633904923	150
0	248	24.868682727108	150
0	249	24.881988580817	150
0	250	24.941653606661	150
0	251	25.300863492173	150
0	252	25.325779660074	150
0	253	25.383029021182	150
0	254	25.441869782668	150
0	255	25.599056865609	150
0	256	25.626447097015	150
0	257	25.643633904923	150
0	258	25.868682727108	150
0	259	25.881988580817	150
0	260	25.941653606661	150
0	261	26.300863492173	150
0	262	26.325779660074	150
0	263	26.383029021182	150
0	264	26.441869782668	150
0	265	26.599056865609	150
0	266	26.626447097015	150
0	267	26.643633904923	150
0	268	26.868682727108	150
0	269	26.881988580817	150
0	270	26.941653606661	150
0	271	26.978682727108	150
0	272	27.300863492173	150
0	273	27.325779660074	150
0	274	27.383029021182	150
0	275	27.441869782668	150
0	276	27.599056865609	150
0	277	27.626447097015	150
0	278	27.643633904923	150
0	279	27.881988580817	150
0	280	27.941653606661	150
0	281	27.978682727108	150
0	282	27.991988580817	150
0	283	28.300863492173	150
0	284	28.325779660074	150
0	285	28.383029021182	150
0	286	28.441869782668	150
0	287	28.599056865609	150
0	288	28.626447097015	150
0	289	28.643633904923	150
0	290	28.941653606661	150
0	291	28.978682727108	150
0	292	28.991988580817	150
0	293	29.182792524736	150
0	294	29.300863492173	150
0	295	29.325779660074	150
0	296	29.383029021182	150
0	297	29.441869782668	150
0	298	29.599056865609	150
0	299	29.626447097015	150
0	300	29.643633904923	150
0	301	29.709056865609	150
0	302	29.941653606661	150
0	303	29.991988580817	150
0	304	30.182792524736	150
0	305	30.300863492173	150
0	306	30.325779660074	150
0	307	30.383029021182	150
0	308	30.441869782668	150
0	309	30.626447097015	150
0	310	30.643633904923	150
0	311	30.709056865609	150
0	312	30.941653606661	150
0	313	30.991988580817	150
0	314	31.182792524736	150
0	315	31.300863492173	150
0	316	31.325779660074	150
0	317	31.383029021182	150
0	318	31.441869782668	150
0	319	31.493029021182	150
0	320	31.626447097015	150
0	321	31.643633904923	150
0	322	31.709056865609	150
0	323	31.941653606661	150
0	324	31.991988580817	150
0	325	32.182792524736	150
0	326	32.270171606355	150
0	327	32.300863492173	150
0	328	32.325779660074	150
0	329	32.441869782668	150
0	330	32.493029021182	150
0	331	32.626447097015	150
0	332	32.643633904923	150
0	333	32.709056865609	150
0	334	32.941653606661	150
0	335	33.182792524736	150
0	336	33.270171606355	150
0	337	33.300863492173	150
0	338	33.325779660074	150
0	339	33.441869782668	150
0	340	33.493029021182	150
0	341	33.626447097015	150
0	342	33.643633904923	150
0	343	33.709056865609	150
0	344	33.941653606661	150
0	345	34.182792524736	150
0	346	34.270171606355	150
0	347	34.300863492173	150
0	348	34.325779660074	150
0	349	34.441869782668	150
0	350	34.493029021182	150
0	351	34.626447097015	150
0	352	34.643633904923	150
0	353	34.709056865609	150
0	354	34.941653606661	150
0	355	35.182792524736	150
0	356	35.270171606355	150
0	357	35.300863492173	150
0	358	35.325779660074	150
0	359	35.441869782668	150
0	360	35.493029021182	150
0	361	35.626447097015	150
0	362	35.643633904923	150
0	363	35.709056865609	150
0	364	35.941653606661	150
0	365	36.182792524736	150
0	366	36.270171606355	150
0	367	36.300863492173	150
0	368	36.325779660074	150
0	369	36.441869782668	150
0	370	36.493029021182	150
0	371	36.626447097015	150
0	372	36.643633904923	150
0	373	36.709056865609	150
0	374	36.875672423823	150
0	375	36.941653606661	150
0	376	37.182792524736	150
0	377	37.270171606355	150
0	378	37.300863492173	150
0	379	37.325779660074	150
0	380	37.441869782668	150
0	381	37.551869782668	150
0	382	37.626447097015	150
0	383	37.643633904923	150
0	384	37.709056865609	150
0	385	37.875672423823	150
0	386	37.941653606661	150
0	387	38.182792524736	150
0	388	38.270171606355	150
0	389	38.300863492173	150
0	390	38.325779660074	150
0	391	38.410863492173	150
0	392	38.551869782668	150
0	393	38.626447097015	150
0	394	38.643633904923	150
0	395	38.709056865609	150
0	396	38.753633904923	150
0	397	38.875672423823	150
0	398	38.941653606661	150
0	399	39.182792524736	150
0	400	39.270171606355	150
0	401	39.325779660074	150
0	402	39.410863492173	150
0	403	39.551869782668	150
0	404	39.626447097015	150
0	405	39.709056865609	150
0	406	39.753633904923	150
0	407	39.875672423823	150
0	408	39.941653606661	150
0	409	40.051869782668	150
0	410	40.182792524736	150
0	411	40.270171606355	150
0	412	40.325779660074	150
0	413	40.410863492173	150
0	414	40.626447097015	150
0	415	40.709056865609	150
0	416	40.753633904923	150
0	417	40.875672423823	150
0	418	40.941653606661	150
0	419	41.051869782668	150
0	420	41.182792524736	150
0	421	41.270171606355	150
0	422	41.325779660074	150
0	423	41.410863492173	150
0	424	41.626447097015	150
0	425	41.709056865609	150
0	426	41.753633904923	150
0	427	41.875672423823	150
0	428	41.941653606661	150
0	429	42.051869782668	150
0	430	42.182792524736	150
0	431	42.270171606355	150
0	432	42.325779660074	150
0	433	42.410863492173	150
0	434	42.626447097015	150
0	435	42.709056865609	150
0	436	42.753633904923	150
0	437	42.875672423823	150
0	438	42.941653606661	150
0	439	43.051653606661	150
0	440	43.051869782668	150
0	441	43.182792524736	150
0	442	43.270171606355	150
0	443	43.325779660074	150
0	444	43.410863492173	150
0	445	43.435779660074	150
0	446	43.626447097015	150
0	447	43.709056865609	150
0	448	43.736447097015	150
0	449	43.753633904923	150
0	450	43.875672423823	150
0	451	44.051653606661	150
0	452	44.051869782668	150
0	453	44.182792524736	150
0	454	44.270171606355	150
0	455	44.410863492173	150
0	456	44.435779660074	150
0	457	44.486447097015	150
0	458	44.709056865609	150
0	459	44.753633904923	150
0	460	44.875672423823	150
0	461	44.935779660074	150
0	462	45.051653606661	150
0	463	45.051869782668	150
0	464	45.182792524736	150
0	465	45.270171606355	150
0	466	45.410863492173	150
0	467	45.486447097015	150
0	468	45.709056865609	150
0	469	45.71808252543	150
0	470	45.723792263243	150
0	471	45.753633904923	150
0	472	45.875672423823	150
0	473	45.935779660074	150
0	474	46.051869782668	150
0	475	46.182792524736	150
0	476	46.270171606355	150
0	477	46.486447097015	150
0	478	46.709056865609	150
0	479	46.71808252543	150
0	480	46.723792263243	150
0	481	46.753633904923	150
0	482	46.875672423823	150
0	483	46.935779660074	150
0	484	47.051869782668	150
0	485	47.182792524736	150
0	486	47.270171606355	150
0	487	47.486447097015	150
0	488	47.709056865609	150
0	489	47.71808252543	150
0	490	47.723792263243	150
0	491	47.753633904923	150
0	492	47.875672423823	150
0	493	47.935779660074	150
0	494	48.051869782668	150
0	495	48.182792524736	150
0	496	48.270171606355	150
0	497	48.486447097015	150
0	498	48.709056865609	150
0	499	48.71808252543	150
0	500	48.723792263243	150
0	501	48.753633904923	150
0	502	48.875672423823	150
0	503	48.935779660074	150
0	504	49.051869782668	150
0	505	49.182792524736	150
0	506	49.270171606355	150
0	507	49.486447097015	150
0	508	49.709056865609	150
0	509	49.71808252543	150
0	510	49.723792263243	150
0	511	49.753633904923	150
0	512	49.875672423823	150
0	513	49.935779660074	150
0	514	50.051869782668	150
0	515	50.182792524736	150
0	516	50.270171606355	150
0	517	50.486447097015	150
0	518	50.709056865609	150
0	519	50.71808252543	150
0	520	50.723792263243	150
0	521	50.753633904923	150
0	522	50.875672423823	150
0	523	50.935779660074	150
0	524	51.051869782668	150
0	525	51.182792524736	150
0	526	51.270171606355	150
0	527	51.486447097015	150
0	528	51.709056865609	150
0	529	51.71808252543	150
0	530	51.723792263243	150
0	531	51.753633904923	150
0	532	51.875672423823	150
0	533	51.935779660074	150
0	534	52.051869782668	150
0	535	52.182792524736	150
0	536	52.270171606355	150
0	537	52.486447097015	150
0	538	52.709056865609	150
0	539	52.71808252543	150
0	540	52.723792263243	150
0	541	52.753633904923	150
0	542	52.875672423823	150
0	543	52.935779660074	150
0	544	53.051869782668	150
0	545	53.182792524736	150
0	546	53.270171606355	150
0	547	53.486447097015	150
0	548	53.709056865609	150
0	549	53.71808252543	150
0	550	53.723792263243	150
0	551	53.753633904923	150
0	552	53.875672423823	150
0	553	53.935779660074	150
0	554	54.051869782668	150
0	555	54.182792524736	150
0	556	54.270171606355	150
0	557	54.486447097015	150
0	558	54.709056865609	150
0	559	54.71808252543	150
0	560	54.723792263243	150
0	561	54.753633904923	150
0	562	54.875672423823	150
0	563	54.935779660074	150
0	564	55.051869782668	150
0	565	55.182792524736	150
0	566	55.270171606355	150
0	567	55.486447097015	150
0	568	55.709056865609	150
0	569	55.71808252543	150
0	570	55.723792263243	150
0	571	55.753633904923	150
0	572	55.875672423823	150
0	573	55.935779660074	150
0	574	56.051869782668	150
0	575	56.182792524736	150
0	576	56.270171606355	150
0	577	56.486447097015	150
0	578	56.709056865609	150
0	579	56.71808252543	150
0	580	56.723792263243	150
0	581	56.753633904923	150
0	582	56.875672423823	150
0	583	56.935779660074	150
0	584	57.051869782668	150
0	585	57.182792524736	150
0	586	57.270171606355	150
0	587	57.380171606355	150
0	588	57.486447097015	150
0	589	57.709056865609	150
0	590	57.71808252543	150
0	591	57.723792263243	150
0	592	57.753633904923	150
0	593	57.875672423823	150
0	594	57.935779660074	150
0	595	58.051869782668	150
0	596	58.182792524736	150
0	597	58.380171606355	150
0	598	58.486447097015	150
0	599	58.709056865609	150
0	600	58.71808252543	150
0	601	58.723792263243	150
0	602	58.753633904923	150
0	603	58.875672423823	150
0	604	58.935779660074	150
0	605	59.051869782668	150
0	606	59.182792524736	150
0	607	59.380171606355	150
0	608	59.486447097015	150
0	609	59.709056865609	150
0	610	59.71808252543	150
0	611	59.723792263243	150
0	612	59.753633904923	150
0	613	59.819056865609	150
0	614	59.875672423823	150
0	615	59.935779660074	150
0	616	60.051869782668	150
0	617	60.182792524736	150
0	618	60.380171606355	150
0	619	60.486447097015	150
0	620	60.71808252543	150
0	621	60.723792263243	150
0	622	60.753633904923	150
0	623	60.819056865609	150
0	624	60.82808252543	150
0	625	60.833792263243	150
0	626	60.875672423823	150
0	627	60.935779660074	150
0	628	61.051869782668	150
0	629	61.182792524736	150
0	630	61.380171606355	150
0	631	61.486447097015	150
0	632	61.753633904923	150
0	633	61.819056865609	150
0	634	61.82808252543	150
0	635	61.833792263243	150
0	636	61.875672423823	150
0	637	61.935779660074	150
0	638	61.985672423823	150
0	639	62.051869782668	150
0	640	62.182792524736	150
0	641	62.380171606355	150
0	642	62.486447097015	150
0	643	62.753633904923	150
0	644	62.819056865609	150
0	645	62.82808252543	150
0	646	62.833792263243	150
0	647	62.935779660074	150
0	648	62.985672423823	150
0	649	63.051869782668	150
0	650	63.182792524736	150
0	651	63.380171606355	150
0	652	63.486447097015	150
0	653	63.753633904923	150
0	654	63.819056865609	150
0	655	63.82808252543	150
0	656	63.833792263243	150
0	657	63.863633904923	150
0	658	63.935779660074	151.33971304008
0	659	63.985672423823	152.26619840378
0	660	64.051869782668	153.49545249749
0	661	64.182792524736	155.92662678383
0	662	64.292792524736	157.96927550378
0	663	64.380171606355	159.59186431486
0	664	64.486447097015	161.56535063267
0	665	64.819056865609	167.74175897867
0	666	64.82808252543	167.90936127394
0	667	64.833792263243	168.01538844335
0	668	64.863633904923	168.56953381771
0	669	64.935779660074	169.90924685779
0	670	64.985672423823	170.83573222148
0	671	65.051869782668	172.0649863152
0	672	65.161869782668	174.10763503514
0	673	65.292792524736	176.53880932148
0	674	65.380171606355	178.16139813257
0	675	65.486447097015	180.13488445037
0	676	65.819056865609	186.31129279638
0	677	65.82808252543	186.47889509165
0	678	65.833792263243	186.58492226106
0	679	65.863633904923	187.13906763541
0	680	65.935779660074	188.47878067549
0	681	65.985672423823	189.40526603919
0	682	66.161869782668	192.67716885285
0	683	66.292792524736	195.10834313919
0	684	66.380171606355	196.73093195027
0	685	66.486447097015	198.70441826808
0	686	66.819056865609	204.88082661408
0	687	66.82808252543	205.04842890936
0	688	66.833792263243	205.15445607876
0	689	66.863633904923	205.70860145312
0	690	66.935779660074	207.0483144932
0	691	66.985672423823	207.97479985689
0	692	67.161869782668	211.24670267056
0	693	67.292792524736	213.67787695689
0	694	67.380171606355	215.30046576798
0	695	67.486447097015	217.27395208578
0	696	67.819056865609	223.45036043179
0	697	67.82808252543	223.61796272706
0	698	67.833792263243	223.72398989647
0	699	67.863633904923	224.27813527082
0	700	67.935779660074	225.6178483109
0	701	67.985672423823	226.5443336746
0	702	68.161869782668	229.81623648826
0	703	68.292792524736	232.2474107746
0	704	68.380171606355	233.86999958568
0	705	68.486447097015	235.84348590349
0	706	68.819056865609	242.01989424949
0	707	68.82808252543	242.18749654477
0	708	68.833792263243	242.29352371418
0	709	68.863633904923	242.84766908853
0	710	68.935779660074	244.18738212861
0	711	68.985672423823	245.1138674923
0	712	69.161869782668	248.38577030597
0	713	69.292792524736	250.81694459231
0	714	69.380171606355	252.43953340339
0	715	69.457133144755	253.86867329337
0	716	69.486447097015	254.41301972119
0	717	69.596447097015	256.45566844114
0	718	69.819056865609	260.5894280672
0	719	69.82808252543	260.75703036247
0	720	69.833792263243	260.86305753188
0	721	69.863633904923	261.41720290623
0	722	69.935779660074	262.75691594631
0	723	69.985672423823	263.68340131001
0	724	70.045779660074	264.79956466626
0	725	70.161869782668	266.95530412367
0	726	70.292792524736	269.38647841001
0	727	70.596447097015	275.02520225885
0	728	70.819056865609	279.1589618849
0	729	70.82808252543	279.32656418018
0	730	70.833792263243	279.43259134959
0	731	70.863633904923	279.98673672394
0	732	70.985672423823	282.25293512772
0	733	71.045779660074	283.36909848397
0	734	71.161869782668	285.52483794138
0	735	71.292792524736	287.95601222772
0	736	71.596447097015	293.59473607655
0	737	71.735138436327	296.17016959213
0	738	71.82808252543	297.89609799788
0	739	71.833792263243	298.00212516729
0	740	71.863633904923	298.55627054164
0	741	71.985672423823	300.82246894542
0	742	72.045779660074	301.93863230167
0	743	72.161869782668	304.09437175908
0	744	72.292792524736	306.52554604542
0	745	72.596447097015	312.16426989426
0	746	72.749873833961	315.01333287452
0	747	72.82808252543	316.46563181559
0	748	72.863633904923	317.12580435935
0	749	72.985672423823	319.39200276313
0	750	73.045779660074	320.50816611938
0	751	73.161869782668	322.66390557679
0	752	73.292792524736	325.09507986313
0	753	73.596447097015	330.73380371196
0	754	73.82808252543	335.03516563329
0	755	73.863633904923	335.69533817706
0	756	73.985672423823	337.96153658083
0	757	74.045779660074	339.07769993708
0	758	74.161869782668	341.23343939449
0	759	74.290994543266	343.63122600312
0	760	74.292792524736	343.66461368083
0	761	74.596447097015	349.30333752967
0	762	74.863633904923	354.26487199476
0	763	74.985672423823	356.53107039854
0	764	75.045779660074	357.64723375479
0	765	75.161869782668	359.8029732122
0	766	75.292792524736	362.23414749854
0	767	75.596447097015	367.87287134737
0	768	75.863633904923	372.83440581247
0	769	75.985672423823	375.10060421624
0	770	76.045779660074	376.21676757249
0	771	76.15749746508	378.29131513059
0	772	76.161869782668	378.37250702991
0	773	76.292792524736	380.80368131624
0	774	76.441172046302	383.55901985982
0	775	76.596447097015	386.44240516508
0	776	76.863633904923	391.40393963017
0	777	77.045779660074	394.7863013902
0	778	77.161869782668	396.94204084761
0	779	77.326545922759	400
0	780	77.596447097015	400
0	781	78.045779660074	400
0	782	78.161869782668	400
0	783	78.596447097015	400
0	784	79.045779660074	400
0	785	79.161869782668	400
0	786	79.333694823925	400
0	787	79.596447097015	400
0	788	80.045779660074	400
0	789	80.596447097015	400
0	790	81.045779660074	400
0	791	81.596447097015	400
0	792	81.831662665202	400
0	793	82.045779660074	400
0	794	82.20845309152	400
1	0	0	355.70676983334
1	0	0	355.70676983334
1	1	1	340.62964512692
1	11	2	325.55252042049
1	21	2.881988580817	312.25466859787
1	22	3	310.47539571406
1	31	3.881988580817	297.17754389144
1	32	4	295.39827100764
1	41	4.599056865609	286.36621593861
1	42	4.881988580817	282.10041918502
1	43	5	280.32114630121
1	51	5.599056865609	271.28909123219
1	52	5.881988580817	267.02329447859
1	53	6	265.24402159479
1	61	6.383029021182	259.46904527625
1	62	6.599056865609	256.21196652576
1	63	6.881988580817	251.94616977217
1	64	7	250.16689688836
1	71	7.383029021182	244.39192056982
1	72	7.599056865609	241.13484181933
1	73	7.881988580817	236.86904506574
1	74	8	235.08977218194
1	81	8.383029021182	229.31479586339
1	82	8.599056865609	226.05771711291
1	83	8.881988580817	221.79192035931
1	84	9	220.01264747551
1	91	9.383029021182	214.23767115697
1	92	9.599056865609	210.98059240648
1	93	9.881988580817	206.71479565289
1	94	10	204.93552276908
1	101	10.383029021182	199.16054645054
1	102	10.599056865609	195.90346770006
1	103	10.881988580817	191.63767094646
1	104	11	189.85839806266
1	111	11.383029021182	184.08342174412
1	112	11.599056865609	180.82634299363
1	113	11.868682727108	176.76116025573
1	114	11.881988580817	176.56054624004
1	115	12	174.78127335623
1	121	12.383029021182	169.00629703769
1	122	12.441869782668	168.11914753895
1	123	12.599056865609	165.74921828721
1	124	12.868682727108	161.68403554931
1	125	12.881988580817	161.48342153361
1	126	13	159.70414864981
1	131	13.383029021182	153.92917233127
1	132	13.441869782668	153.04202283252
1	133	13.599056865609	150.67209358078
1	134	13.643633904923	150
1	135	13.868682727108	150
1	136	13.881988580817	150
1	137	14	150
1	141	14.383029021182	150
1	142	14.441869782668	150
1	143	14.599056865609	150
1	144	14.643633904923	150
1	145	14.868682727108	150
1	146	14.881988580817	150
1	147	15	150
1	151	15.383029021182	150
1	152	15.441869782668	150
1	153	15.599056865609	150
1	154	15.643633904923	150
1	155	15.868682727108	150
1	156	15.881988580817	150
1	157	16	150
1	161	16.383029021182	150
1	162	16.441869782668	150
1	163	16.599056865609	150
1	164	16.643633904923	150
1	165	16.868682727108	150
1	166	16.881988580817	150
1	167	17	150
1	171	17.383029021182	150
1	172	17.441869782668	150
1	173	17.599056865609	150
1	174	17.643633904923	150
1	175	17.868682727108	150
1	176	17.881988580817	150
1	177	17.941653606661	150
1	178	18	150
1	181	18.325779660074	150
1	182	18.383029021182	150
1	183	18.441869782668	150
1	184	18.599056865609	150
1	185	18.626447097015	150
1	186	18.643633904923	150
1	187	18.868682727108	150
1	188	18.881988580817	150
1	189	18.941653606661	150
1	190	19	150
1	191	19.325779660074	150
1	192	19.383029021182	150
1	193	19.441869782668	150
1	194	19.599056865609	150
1	195	19.626447097015	150
1	196	19.643633904923	150
1	197	19.868682727108	150
1	198	19.881988580817	150
1	199	19.941653606661	150
1	200	20	150
1	201	20.325779660074	150
1	202	20.383029021182	150
1	203	20.441869782668	150
1	204	20.599056865609	150
1	205	20.626447097015	150
1	206	20.643633904923	150
1	207	20.868682727108	150
1	208	20.881988580817	150
1	209	20.941653606661	150
1	210	21	150
1	211	21.325779660074	150
1	212	21.383029021182	150
1	213	21.441869782668	150
1	214	21.599056865609	150
1	215	21.626447097015	150
1	216	21.643633904923	150
1	217	21.868682727108	150
1	218	21.881988580817	150
1	219	21.941653606661	150
1	220	22	150
1	221	22.325779660074	150
1	222	22.383029021182	150
1	223	22.441869782668	150
1	224	22.599056865609	150
1	225	22.626447097015	150
1	226	22.643633904923	150
1	227	22.868682727108	150
1	228	22.881988580817	150
1	229	22.941653606661	150
1	230	23	150
1	231	23.300863492173	150
1	232	23.325779660074	150
1	233	23.383029021182	150
1	234	23.441869782668	150
1	235	23.599056865609	150
1	236	23.626447097015	150
1	237	23.643633904923	150
1	238	23.868682727108	150
1	239	23.881988580817	150
1	240	23.941653606661	150
1	241	24.300863492173	150
1	242	24.325779660074	150
1	243	24.383029021182	150
1	244	24.441869782668	150
1	245	24.599056865609	150
1	246	24.626447097015	150
1	247	24.643633904923	150
1	248	24.868682727108	150
1	249	24.881988580817	150
1	250	24.941653606661	150
1	251	25.300863492173	150
1	252	25.325779660074	150
1	253	25.383029021182	150
1	254	25.441869782668	150
1	255	25.599056865609	150
1	256	25.626447097015	150
1	257	25.643633904923	150
1	258	25.868682727108	150
1	259	25.881988580817	150
1	260	25.941653606661	150
1	261	26.300863492173	150
1	262	26.325779660074	150
1	263	26.383029021182	150
1	264	26.441869782668	150
1	265	26.599056865609	150
1	266	26.626447097015	150
1	267	26.643633904923	150
1	268	26.868682727108	150
1	269	26.881988580817	150
1	270	26.941653606661	150
1	271	26.978682727108	150
1	272	27.300863492173	150
1	273	27.325779660074	150
1	274	27.383029021182	150
1	275	27.441869782668	150
1	276	27.599056865609	150
1	277	27.626447097015	150
1	278	27.643633904923	150
1	279	27.881988580817	150
1	280	27.941653606661	150
1	281	27.978682727108	150
1	282	27.991988580817	150
1	283	28.300863492173	150
1	284	28.325779660074	150
1	285	28.383029021182	150
1	286	28.441869782668	150
1	287	28.599056865609	150
1	288	28.626447097015	150
1	289	28.643633904923	150
1	290	28.941653606661	150
1	291	28.978682727108	150
1	292	28.991988580817	150
1	293	29.182792524736	150
1	294	29.300863492173	150
1	295	29.325779660074	150
1	296	29.383029021182	150
1	297	29.441869782668	150
1	298	29.599056865609	150
1	299	29.626447097015	150
1	300	29.643633904923	150
1	301	29.709056865609	150
1	302	29.941653606661	150
1	303	29.991988580817	150
1	304	30.182792524736	150
1	305	30.300863492173	150
1	306	30.325779660074	150
1	307	30.383029021182	150
1	308	30.441869782668	150
1	309	30.626447097015	150
1	310	30.643633904923	150
1	311	30.709056865609	150
1	312	30.941653606661	150
1	313	30.991988580817	150
1	314	31.182792524736	150
1	315	31.300863492173	150
1	316	31.325779660074	150
1	317	31.383029021182	150
1	318	31.441869782668	150
1	319	31.493029021182	150
1	320	31.626447097015	150
1	321	31.643633904923	150
1	322	31.709056865609	150
1	323	31.941653606661	150
1	324	31.991988580817	150
1	325	32.182792524736	150
1	326	32.270171606355	150
1	327	32.300863492173	150
1	328	32.325779660074	150
1	329	32.441869782668	150
1	330	32.493029021182	150
1	331	32.626447097015	150
1	332	32.643633904923	150
1	333	32.709056865609	150
1	334	32.941653606661	150
1	335	33.182792524736	150
1	336	33.270171606355	150
1	337	33.300863492173	150
1	338	33.325779660074	150
1	339	33.441869782668	150
1	340	33.493029021182	150
1	341	33.626447097015	150
1	342	33.643633904923	150
1	343	33.709056865609	150
1	344	33.941653606661	150
1	345	34.182792524736	150
1	346	34.270171606355	150
1	347	34.300863492173	150
1	348	34.325779660074	150
1	349	34.441869782668	150
1	350	34.493029021182	150
1	351	34.626447097015	150
1	352	34.643633904923	150
1	353	34.709056865609	150
1	354	34.941653606661	150
1	355	35.182792524736	150
1	356	35.270171606355	150
1	357	35.300863492173	150
1	358	35.325779660074	150
1	359	35.441869782668	150
1	360	35.493029021182	150
1	361	35.626447097015	150
1	362	35.643633904923	150
1	363	35.709056865609	150
1	364	35.941653606661	150
1	365	36.182792524736	150
1	366	36.270171606355	150
1	367	36.300863492173	150
1	368	36.325779660074	150
1	369	36.441869782668	150
1	370	36.493029021182	150
1	371	36.626447097015	150
1	372	36.643633904923	150
1	373	36.709056865609	150
1	374	36.875672423823	150
1	375	36.941653606661	150
1	376	37.182792524736	150
1	377	37.270171606355	150
1	378	37.300863492173	150
1	379	37.325779660074	150
1	380	37.441869782668	150
1	381	37.551869782668	150
1	382	37.626447097015	150
1	383	37.643633904923	150
1	384	37.709056865609	150
1	385	37.875672423823	150
1	386	37.941653606661	150
1	387	38.182792524736	150
1	388	38.270171606355	150
1	389	38.300863492173	150
1	390	38.325779660074	150
1	391	38.410863492173	150
1	392	38.551869782668	150
1	393	38.626447097015	150
1	394	38.643633904923	150
1	395	38.709056865609	150
1	396	38.753633904923	150
1	397	38.875672423823	150
1	398	38.941653606661	150
1	399	39.182792524736	150
1	400	39.270171606355	150
1	401	39.325779660074	150
1	402	39.410863492173	150
1	403	39.551869782668	150
1	404	39.626447097015	150
1	405	39.709056865609	150
1	406	39.753633904923	150
1	407	39.875672423823	150
1	408	39.941653606661	150
1	409	40.051869782668	150
1	410	40.182792524736	150
1	411	40.270171606355	150
1	412	40.325779660074	150
1	413	40.410863492173	150
1	414	40.626447097015	150
1	415	40.709056865609	150
1	416	40.753633904923	150
1	417	40.875672423823	150
1	418	40.941653606661	150
1	419	41.051869782668	150
1	420	41.182792524736	150
1	421	41.270171606355	150
1	422	41.325779660074	150
1	423	41.410863492173	150
1	424	41.626447097015	150
1	425	41.709056865609	150
1	426	41.753633904923	150
1	427	41.875672423823	150
1	428	41.941653606661	150
1	429	42.051869782668	150
1	430	42.182792524736	150
1	431	42.270171606355	150
1	432	42.325779660074	150
1	433	42.410863492173	150
1	434	42.626447097015	150
1	435	42.709056865609	150
1	436	42.753633904923	150
1	437	42.875672423823	150
1	438	42.941653606661	150
1	439	43.051653606661	150
1	440	43.051869782668	150
1	441	43.182792524736	150
1	442	43.270171606355	150
1	443	43.325779660074	150
1	444	43.410863492173	150
1	445	43.435779660074	150
1	446	43.626447097015	150
1	447	43.709056865609	150
1	448	43.736447097015	150
1	449	43.753633904923	150
1	450	43.875672423823	150
1	451	44.051653606661	150
1	452	44.051869782668	150
1	453	44.182792524736	150
1	454	44.270171606355	150
1	455	44.410863492173	150
1	456	44.435779660074	150
1	457	44.486447097015	150
1	458	44.709056865609	150
1	459	44.753633904923	150
1	460	44.875672423823	150
1	461	44.935779660074	150
1	462	45.051653606661	150
1	463	45.051869782668	150
1	464	45.182792524736	150
1	465	45.270171606355	150
1	466	45.410863492173	150
1	467	45.486447097015	150
1	468	45.709056865609	150
1	469	45.71808252543	150
1	470	45.723792263243	150
1	471	45.753633904923	150
1	472	45.875672423823	150
1	473	45.935779660074	150
1	474	46.051869782668	150
1	475	46.182792524736	150
1	476	46.270171606355	150
1	477	46.486447097015	150
1	478	46.709056865609	150
1	479	46.71808252543	150
1	480	46.723792263243	150
1	481	46.753633904923	150
1	482	46.875672423823	150
1	483	46.935779660074	150
1	484	47.051869782668	150
1	485	47.182792524736	150
1	486	47.270171606355	150
1	487	47.486447097015	150
1	488	47.709056865609	150
1	489	47.71808252543	150
1	490	47.723792263243	150
1	491	47.753633904923	150
1	492	47.875672423823	150
1	493	47.935779660074	150
1	494	48.051869782668	150
1	495	48.182792524736	150
1	496	48.270171606355	150
1	497	48.486447097015	150
1	498	48.709056865609	150
1	499	48.71808252543	150
1	500	48.723792263243	150
1	501	48.753633904923	150
1	502	48.875672423823	150
1	503	48.935779660074	150
1	504	49.051869782668	150
1	505	49.182792524736	150
1	506	49.270171606355	150
1	507	49.486447097015	150
1	508	49.709056865609	150
1	509	49.71808252543	150
1	510	49.723792263243	150
1	511	49.753633904923	150
1	512	49.875672423823	150
1	513	49.935779660074	150
1	514	50.051869782668	150
1	515	50.182792524736	150
1	516	50.270171606355	150
1	517	50.486447097015	150
1	518	50.709056865609	150
1	519	50.71808252543	150
1	520	50.723792263243	150
1	521	50.753633904923	150
1	522	50.875672423823	150
1	523	50.935779660074	150
1	524	51.051869782668	150
1	525	51.182792524736	150
1	526	51.270171606355	150
1	527	51.486447097015	150
1	528	51.709056865609	150
1	529	51.71808252543	150
1	530	51.723792263243	150
1	531	51.753633904923	150
1	532	51.875672423823	150
1	533	51.935779660074	150
1	534	52.051869782668	150
1	535	52.182792524736	150
1	536	52.270171606355	150
1	537	52.486447097015	150
1	538	52.709056865609	150
1	539	52.71808252543	150
1	540	52.723792263243	150
1	541	52.753633904923	150
1	542	52.875672423823	150
1	543	52.935779660074	150
1	544	53.051869782668	150
1	545	53.182792524736	150
1	546	53.270171606355	150
1	547	53.486447097015	150
1	548	53.709056865609	150
1	549	53.71808252543	150
1	550	53.723792263243	150
1	551	53.753633904923	150
1	552	53.875672423823	150
1	553	53.935779660074	150
1	554	54.051869782668	150
1	555	54.182792524736	150
1	556	54.270171606355	150
1	557	54.486447097015	150
1	558	54.709056865609	150
1	559	54.71808252543	150
1	560	54.723792263243	150
1	561	54.753633904923	150
1	562	54.875672423823	150
1	563	54.935779660074	150
1	564	55.051869782668	150
1	565	55.182792524736	150
1	566	55.270171606355	150
1	567	55.486447097015	150
1	568	55.709056865609	150
1	569	55.71808252543	150
1	570	55.723792263243	150
1	571	55.753633904923	150
1	572	55.875672423823	150
1	573	55.935779660074	150
1	574	56.051869782668	150
1	575	56.182792524736	150
1	576	56.270171606355	150
1	577	56.486447097015	150
1	578	56.709056865609	150
1	579	56.71808252543	150
1	580	56.723792263243	150
1	581	56.753633904923	150
1	582	56.875672423823	150
1	583	56.935779660074	150
1	584	57.051869782668	150
1	585	57.182792524736	150
1	586	57.270171606355	150
1	587	57.380171606355	150
1	588	57.486447097015	150
1	589	57.709056865609	150
1	590	57.71808252543	150
1	591	57.723792263243	150
1	592	57.753633904923	150
1	593	57.875672423823	150
1	594	57.935779660074	150
1	595	58.051869782668	150
1	596	58.182792524736	150
1	597	58.380171606355	150
1	598	58.486447097015	150
1	599	58.709056865609	150
1	600	58.71808252543	150
1	601	58.723792263243	150
1	602	58.753633904923	150
1	603	58.875672423823	150
1	604	58.935779660074	150
1	605	59.051869782668	150
1	606	59.182792524736	150
1	607	59.380171606355	150
1	608	59.486447097015	150
1	609	59.709056865609	150
1	610	59.71808252543	150
1	611	59.723792263243	150
1	612	59.753633904923	150
1	613	59.819056865609	150
1	614	59.875672423823	150
1	615	59.935779660074	150
1	616	60.051869782668	150
1	617	60.182792524736	150
1	618	60.380171606355	150
1	619	60.486447097015	150
1	620	60.71808252543	150
1	621	60.723792263243	150
1	622	60.753633904923	150
1	623	60.819056865609	150
1	624	60.82808252543	150
1	625	60.833792263243	150
1	626	60.875672423823	150
1	627	60.935779660074	150
1	628	61.051869782668	150
1	629	61.182792524736	150
1	630	61.380171606355	150
1	631	61.486447097015	150
1	632	61.753633904923	150
1	633	61.819056865609	150
1	634	61.82808252543	150
1	635	61.833792263243	150
1	636	61.875672423823	150
1	637	61.935779660074	150
1	638	61.985672423823	150
1	639	62.051869782668	150
1	640	62.182792524736	150
1	641	62.380171606355	150
1	642	62.486447097015	150
1	643	62.753633904923	150
1	644	62.819056865609	150
1	645	62.82808252543	150
1	646	62.833792263243	150
1	647	62.935779660074	150
1	648	62.985672423823	150
1	649	63.051869782668	150
1	650	63.182792524736	150
1	651	63.380171606355	150
1	652	63.486447097015	150
1	653	63.753633904923	150
1	654	63.819056865609	150
1	655	63.82808252543	150
1	656	63.833792263243	150
1	657	63.863633904923	150
1	658	63.935779660074	150.53588521603
1	659	63.985672423823	150.90647936151
1	660	64.051869782668	151.398180999
1	661	64.182792524736	152.37065071353
1	662	64.292792524736	153.18771020151
1	663	64.380171606355	153.83674572594
1	664	64.486447097015	154.62614025307
1	665	64.819056865609	157.09670359147
1	666	64.82808252543	157.16374450958
1	667	64.833792263243	157.20615537734
1	668	64.863633904923	157.42781352708
1	669	64.935779660074	157.96369874311
1	670	64.985672423823	158.33429288859
1	671	65.051869782668	158.82599452608
1	672	65.161869782668	159.64305401406
1	673	65.292792524736	160.61552372859
1	674	65.380171606355	161.26455925303
1	675	65.486447097015	162.05395378015
1	676	65.819056865609	164.52451711855
1	677	65.82808252543	164.59155803666
1	678	65.833792263243	164.63396890442
1	679	65.863633904923	164.85562705416
1	680	65.935779660074	165.3915122702
1	681	65.985672423823	165.76210641567
1	682	66.161869782668	167.07086754114
1	683	66.292792524736	168.04333725568
1	684	66.380171606355	168.69237278011
1	685	66.486447097015	169.48176730723
1	686	66.819056865609	171.95233064563
1	687	66.82808252543	172.01937156374
1	688	66.833792263243	172.06178243151
1	689	66.863633904923	172.28344058125
1	690	66.935779660074	172.81932579728
1	691	66.985672423823	173.18991994276
1	692	67.161869782668	174.49868106822
1	693	67.292792524736	175.47115078276
1	694	67.380171606355	176.12018630719
1	695	67.486447097015	176.90958083431
1	696	67.819056865609	179.38014417272
1	697	67.82808252543	179.44718509082
1	698	67.833792263243	179.48959595859
1	699	67.863633904923	179.71125410833
1	700	67.935779660074	180.24713932436
1	701	67.985672423823	180.61773346984
1	702	68.161869782668	181.9264945953
1	703	68.292792524736	182.89896430984
1	704	68.380171606355	183.54799983427
1	705	68.486447097015	184.3373943614
1	706	68.819056865609	186.8079576998
1	707	68.82808252543	186.87499861791
1	708	68.833792263243	186.91740948567
1	709	68.863633904923	187.13906763541
1	710	68.935779660074	187.67495285144
1	711	68.985672423823	188.04554699692
1	712	69.161869782668	189.35430812239
1	713	69.292792524736	190.32677783692
1	714	69.380171606355	190.97581336136
1	715	69.457133144755	191.54746931735
1	716	69.486447097015	191.76520788848
1	717	69.596447097015	192.58226737646
1	718	69.819056865609	194.23577122688
1	719	69.82808252543	194.30281214499
1	720	69.833792263243	194.34522301275
1	721	69.863633904923	194.56688116249
1	722	69.935779660074	195.10276637853
1	723	69.985672423823	195.473360524
1	724	70.045779660074	195.9198258665
1	725	70.161869782668	196.78212164947
1	726	70.292792524736	197.754591364
1	727	70.596447097015	200.01008090354
1	728	70.819056865609	201.66358475396
1	729	70.82808252543	201.73062567207
1	730	70.833792263243	201.77303653983
1	731	70.863633904923	201.99469468958
1	732	70.985672423823	202.90117405109
1	733	71.045779660074	203.34763939359
1	734	71.161869782668	204.20993517655
1	735	71.292792524736	205.18240489109
1	736	71.596447097015	207.43789443062
1	737	71.735138436327	208.46806783685
1	738	71.82808252543	209.15843919915
1	739	71.833792263243	209.20085006692
1	740	71.863633904923	209.42250821666
1	741	71.985672423823	210.32898757817
1	742	72.045779660074	210.77545292067
1	743	72.161869782668	211.63774870363
1	744	72.292792524736	212.61021841817
1	745	72.596447097015	214.8657079577
1	746	72.749873833961	216.00533314981
1	747	72.82808252543	216.58625272624
1	748	72.863633904923	216.85032174374
1	749	72.985672423823	217.75680110525
1	750	73.045779660074	218.20326644775
1	751	73.161869782668	219.06556223072
1	752	73.292792524736	220.03803194525
1	753	73.596447097015	222.29352148479
1	754	73.82808252543	224.01406625332
1	755	73.863633904923	224.27813527082
1	756	73.985672423823	225.18461463233
1	757	74.045779660074	225.63107997483
1	758	74.161869782668	226.4933757578
1	759	74.290994543266	227.45249040125
1	760	74.292792524736	227.46584547233
1	761	74.596447097015	229.72133501187
1	762	74.863633904923	231.7059487979
1	763	74.985672423823	232.61242815941
1	764	75.045779660074	233.05889350192
1	765	75.161869782668	233.92118928488
1	766	75.292792524736	234.89365899942
1	767	75.596447097015	237.14914853895
1	768	75.863633904923	239.13376232499
1	769	75.985672423823	240.0402416865
1	770	76.045779660074	240.486707029
1	771	76.15749746508	241.31652605224
1	772	76.161869782668	241.34900281196
1	773	76.292792524736	242.3214725265
1	774	76.441172046302	243.42360794393
1	775	76.596447097015	244.57696206603
1	776	76.863633904923	246.56157585207
1	777	77.045779660074	247.91452055608
1	778	77.161869782668	248.77681633904
1	779	77.326545922759	250
1	780	77.596447097015	250
1	781	78.045779660074	250
1	782	78.161869782668	250
1	783	78.596447097015	250
1	784	79.045779660074	250
1	785	79.161869782668	250
1	786	79.333694823925	250
1	787	79.596447097015	250
1	788	80.045779660074	250
1	789	80.596447097015	250
1	790	81.045779660074	250
1	791	81.596447097015	250
1	792	81.831662665202	250
1	793	82.045779660074	250
1	794	82.20845309152	250
2	0	0	0
2	0	0	0
2	1	1	0
2	11	2	0
2	21	2.881988580817	0
2	22	3	0
2	31	3.881988580817	0
2	32	4	0
2	41	4.599056865609	0
2	42	4.881988580817	0
2	43	5	0
2	51	5.599056865609	0
2	52	5.881988580817	0
2	53	6	0
2	61	6.383029021182	0
2	62	6.599056865609	0
2	63	6.881988580817	0
2	64	7	0
2	71	7.383029021182	0
2	72	7.599056865609	0
2	73	7.881988580817	0
2	74	8	0
2	81	8.383029021182	0
2	82	8.599056865609	0
2	83	8.881988580817	0
2	84	9	0
2	91	9.383029021182	0
2	92	9.599056865609	0
2	93	9.881988580817	0
2	94	10	0
2	101	10.383029021182	0
2	102	10.599056865609	0
2	103	10.881988580817	0
2	104	11	0
2	111	11.383029021182	0
2	112	11.599056865609	0
2	113	11.868682727108	0
2	114	11.881988580817	0
2	115	12	0
2	121	12.383029021182	0
2	122	12.441869782668	0
2	123	12.599056865609	0
2	124	12.868682727108	0
2	125	12.881988580817	0
2	126	13	0
2	131	13.383029021182	0
2	132	13.441869782668	0
2	133	13.599056865609	0
2	134	13.643633904923	0
2	135	13.868682727108	0
2	136	13.881988580817	0
2	137	14	0
2	141	14.383029021182	0
2	142	14.441869782668	0
2	143	14.599056865609	0
2	144	14.643633904923	0
2	145	14.868682727108	0
2	146	14.881988580817	0
2	147	15	0
2	151	15.383029021182	0
2	152	15.441869782668	0
2	153	15.599056865609	0
2	154	15.643633904923	0
2	155	15.868682727108	0
2	156	15.881988580817	0
2	157	16	0
2	161	16.383029021182	0
2	162	16.441869782668	0
2	163	16.599056865609	0
2	164	16.643633904923	0
2	165	16.868682727108	0
2	166	16.881988580817	0
2	167	17	0
2	171	17.383029021182	0
2	172	17.441869782668	0
2	173	17.599056865609	0
2	174	17.643633904923	0
2	175	17.868682727108	0
2	176	17.881988580817	0
2	177	17.941653606661	0
2	178	18	0
2	181	18.325779660074	0
2	182	18.383029021182	0
2	183	18.441869782668	0
2	184	18.599056865609	0
2	185	18.626447097015	0
2	186	18.643633904923	0
2	187	18.868682727108	0
2	188	18.881988580817	0
2	189	18.941653606661	0
2	190	19	0
2	191	19.325779660074	0
2	192	19.383029021182	0
2	193	19.441869782668	0
2	194	19.599056865609	0
2	195	19.626447097015	0
2	196	19.643633904923	0
2	197	19.868682727108	0
2	198	19.881988580817	0
2	199	19.941653606661	0
2	200	20	0
2	201	20.325779660074	0
2	202	20.383029021182	0
2	203	20.441869782668	0
2	204	20.599056865609	0
2	205	20.626447097015	0
2	206	20.643633904923	0
2	207	20.868682727108	0
2	208	20.881988580817	0
2	209	20.941653606661	0
2	210	21	0
2	211	21.325779660074	0
2	212	21.383029021182	0
2	213	21.441869782668	0
2	214	21.599056865609	0
2	215	21.626447097015	0
2	216	21.643633904923	0
2	217	21.868682727108	0
2	218	21.881988580817	0
2	219	21.941653606661	0
2	220	22	0
2	221	22.325779660074	0
2	222	22.383029021182	0
2	223	22.441869782668	0
2	224	22.599056865609	0
2	225	22.626447097015	0
2	226	22.643633904923	0
2	227	22.868682727108	0
2	228	22.881988580817	0
2	229	22.941653606661	0
2	230	23	0
2	231	23.300863492173	0
2	232	23.325779660074	0
2	233	23.383029021182	0
2	234	23.441869782668	0
2	235	23.599056865609	0
2	236	23.626447097015	0
2	237	23.643633904923	0
2	238	23.868682727108	0
2	239	23.881988580817	0
2	240	23.941653606661	0
2	241	24.300863492173	0
2	242	24.325779660074	0
2	243	24.383029021182	0
2	244	24.441869782668	0
2	245	24.599056865609	0
2	246	24.626447097015	0
2	247	24.643633904923	0
2	248	24.868682727108	0
2	249	24.881988580817	0
2	250	24.941653606661	0
2	251	25.300863492173	0
2	252	25.325779660074	0
2	253	25.383029021182	0
2	254	25.441869782668	0
2	255	25.599056865609	0
2	256	25.626447097015	0
2	257	25.643633904923	0
2	258	25.868682727108	0
2	259	25.881988580817	0
2	260	25.941653606661	0
2	261	26.300863492173	0
2	262	26.325779660074	0
2	263	26.383029021182	0
2	264	26.441869782668	0
2	265	26.599056865609	0
2	266	26.626447097015	0
2	267	26.643633904923	0
2	268	26.868682727108	0
2	269	26.881988580817	0
2	270	26.941653606661	0
2	271	26.978682727108	0
2	272	27.300863492173	0
2	273	27.325779660074	0
2	274	27.383029021182	0
2	275	27.441869782668	0
2	276	27.599056865609	0
2	277	27.626447097015	0
2	278	27.643633904923	0
2	279	27.881988580817	0
2	280	27.941653606661	0
2	281	27.978682727108	0
2	282	27.991988580817	0
2	283	28.300863492173	0
2	284	28.325779660074	0
2	285	28.383029021182	0
2	286	28.441869782668	0
2	287	28.599056865609	0
2	288	28.626447097015	0
2	289	28.643633904923	0
2	290	28.941653606661	0
2	291	28.978682727108	0
2	292	28.991988580817	0
2	293	29.182792524736	0
2	294	29.300863492173	0
2	295	29.325779660074	0
2	296	29.383029021182	0
2	297	29.441869782668	0
2	298	29.599056865609	0
2	299	29.626447097015	0
2	300	29.643633904923	0
2	301	29.709056865609	0
2	302	29.941653606661	0
2	303	29.991988580817	0
2	304	30.182792524736	0
2	305	30.300863492173	0
2	306	30.325779660074	0
2	307	30.383029021182	0
2	308	30.441869782668	0
2	309	30.626447097015	0
2	310	30.643633904923	0
2	311	30.709056865609	0
2	312	30.941653606661	0
2	313	30.991988580817	0
2	314	31.182792524736	0
2	315	31.300863492173	0
2	316	31.325779660074	0
2	317	31.383029021182	0
2	318	31.441869782668	0
2	319	31.493029021182	0
2	320	31.626447097015	0
2	321	31.643633904923	0
2	322	31.709056865609	0
2	323	31.941653606661	0
2	324	31.991988580817	0
2	325	32.182792524736	0
2	326	32.270171606355	0
2	327	32.300863492173	0
2	328	32.325779660074	0
2	329	32.441869782668	0
2	330	32.493029021182	0
2	331	32.626447097015	0
2	332	32.643633904923	0
2	333	32.709056865609	0
2	334	32.941653606661	0
2	335	33.182792524736	0
2	336	33.270171606355	0
2	337	33.300863492173	0
2	338	33.325779660074	0
2	339	33.441869782668	0
2	340	33.493029021182	0
2	341	33.626447097015	0
2	342	33.643633904923	0
2	343	33.709056865609	0
2	344	33.941653606661	0
2	345	34.182792524736	0
2	346	34.270171606355	0
2	347	34.300863492173	0
2	348	34.325779660074	0
2	349	34.441869782668	0
2	350	34.493029021182	0
2	351	34.626447097015	0
2	352	34.643633904923	0
2	353	34.709056865609	0
2	354	34.941653606661	0
2	355	35.182792524736	0
2	356	35.270171606355	0
2	357	35.300863492173	0
2	358	35.325779660074	0
2	359	35.441869782668	0
2	360	35.493029021182	0
2	361	35.626447097015	0
2	362	35.643633904923	0
2	363	35.709056865609	0
2	364	35.941653606661	0
2	365	36.182792524736	0
2	366	36.270171606355	0
2	367	36.300863492173	0
2	368	36.325779660074	0
2	369	36.441869782668	0
2	370	36.493029021182	0
2	371	36.626447097015	0
2	372	36.643633904923	0
2	373	36.709056865609	0
2	374	36.875672423823	0
2	375	36.941653606661	0
2	376	37.182792524736	0
2	377	37.270171606355	0
2	378	37.300863492173	0
2	379	37.325779660074	0
2	380	37.441869782668	0
2	381	37.551869782668	0
2	382	37.626447097015	0
2	383	37.643633904923	0
2	384	37.709056865609	0
2	385	37.875672423823	0
2	386	37.941653606661	0
2	387	38.182792524736	0
2	388	38.270171606355	0
2	389	38.300863492173	0
2	390	38.325779660074	0
2	391	38.410863492173	0
2	392	38.551869782668	0
2	393	38.626447097015	0
2	394	38.643633904923	0
2	395	38.709056865609	0
2	396	38.753633904923	0
2	397	38.875672423823	0
2	398	38.941653606661	0
2	399	39.182792524736	0
2	400	39.270171606355	0
2	401	39.325779660074	0
2	402	39.410863492173	0
2	403	39.551869782668	0
2	404	39.626447097015	0
2	405	39.709056865609	0
2	406	39.753633904923	0
2	407	39.875672423823	0
2	408	39.941653606661	0
2	409	40.051869782668	0
2	410	40.182792524736	0
2	411	40.270171606355	0
2	412	40.325779660074	0
2	413	40.410863492173	0
2	414	40.626447097015	0
2	415	40.709056865609	0
2	416	40.753633904923	0
2	417	40.875672423823	0
2	418	40.941653606661	0
2	419	41.051869782668	0
2	420	41.182792524736	0
2	421	41.270171606355	0
2	422	41.325779660074	0
2	423	41.410863492173	0
2	424	41.626447097015	0
2	425	41.709056865609	0
2	426	41.753633904923	0
2	427	41.875672423823	0
2	428	41.941653606661	0
2	429	42.051869782668	0
2	430	42.182792524736	0
2	431	42.270171606355	0
2	432	42.325779660074	0
2	433	42.410863492173	0
2	434	42.626447097015	0
2	435	42.709056865609	0
2	436	42.753633904923	0
2	437	42.875672423823	0
2	438	42.941653606661	0
2	439	43.051653606661	0
2	440	43.051869782668	0
2	441	43.182792524736	0
2	442	43.270171606355	0
2	443	43.325779660074	0
2	444	43.410863492173	0
2	445	43.435779660074	0
2	446	43.626447097015	0
2	447	43.709056865609	0
2	448	43.736447097015	0
2	449	43.753633904923	0
2	450	43.875672423823	0
2	451	44.051653606661	0
2	452	44.051869782668	0
2	453	44.182792524736	0
2	454	44.270171606355	0
2	455	44.410863492173	0
2	456	44.435779660074	0
2	457	44.486447097015	0
2	458	44.709056865609	0
2	459	44.753633904923	0
2	460	44.875672423823	0
2	461	44.935779660074	0
2	462	45.051653606661	0
2	463	45.051869782668	0
2	464	45.182792524736	0
2	465	45.270171606355	0
2	466	45.410863492173	0
2	467	45.486447097015	0
2	468	45.709056865609	0
2	469	45.71808252543	0
2	470	45.723792263243	0
2	471	45.753633904923	0
2	472	45.875672423823	0
2	473	45.935779660074	0
2	474	46.051869782668	0
2	475	46.182792524736	0
2	476	46.270171606355	0
2	477	46.486447097015	0
2	478	46.709056865609	0
2	479	46.71808252543	0
2	480	46.723792263243	0
2	481	46.753633904923	0
2	482	46.875672423823	0
2	483	46.935779660074	0
2	484	47.051869782668	0
2	485	47.182792524736	0
2	486	47.270171606355	0
2	487	47.486447097015	0
2	488	47.709056865609	0
2	489	47.71808252543	0
2	490	47.723792263243	0
2	491	47.753633904923	0
2	492	47.875672423823	0
2	493	47.935779660074	0
2	494	48.051869782668	0
2	495	48.182792524736	0
2	496	48.270171606355	0
2	497	48.486447097015	0
2	498	48.709056865609	0
2	499	48.71808252543	0
2	500	48.723792263243	0
2	501	48.753633904923	0
2	502	48.875672423823	0
2	503	48.935779660074	0
2	504	49.051869782668	0
2	505	49.182792524736	0
2	506	49.270171606355	0
2	507	49.486447097015	0
2	508	49.709056865609	0
2	509	49.71808252543	0
2	510	49.723792263243	0
2	511	49.753633904923	0
2	512	49.875672423823	0
2	513	49.935779660074	0
2	514	50.051869782668	0
2	515	50.182792524736	0
2	516	50.270171606355	0
2	517	50.486447097015	0
2	518	50.709056865609	0
2	519	50.71808252543	0
2	520	50.723792263243	0
2	521	50.753633904923	0
2	522	50.875672423823	0
2	523	50.935779660074	0
2	524	51.051869782668	0
2	525	51.182792524736	0
2	526	51.270171606355	0
2	527	51.486447097015	0
2	528	51.709056865609	0
2	529	51.71808252543	0
2	530	51.723792263243	0
2	531	51.753633904923	0
2	532	51.875672423823	0
2	533	51.935779660074	0
2	534	52.051869782668	0
2	535	52.182792524736	0
2	536	52.270171606355	0
2	537	52.486447097015	0
2	538	52.709056865609	0
2	539	52.71808252543	0
2	540	52.723792263243	0
2	541	52.753633904923	0
2	542	52.875672423823	0
2	543	52.935779660074	0
2	544	53.051869782668	0
2	545	53.182792524736	0
2	546	53.270171606355	0
2	547	53.486447097015	0
2	548	53.709056865609	0
2	549	53.71808252543	0
2	550	53.723792263243	0
2	551	53.753633904923	0
2	552	53.875672423823	0
2	553	53.935779660074	0
2	554	54.051869782668	0
2	555	54.182792524736	0
2	556	54.270171606355	0
2	557	54.486447097015	0
2	558	54.709056865609	0
2	559	54.71808252543	0
2	560	54.723792263243	0
2	561	54.753633904923	0
2	562	54.875672423823	0
2	563	54.935779660074	0
2	564	55.051869782668	0
2	565	55.182792524736	0
2	566	55.270171606355	0
2	567	55.486447097015	0
2	568	55.709056865609	0
2	569	55.71808252543	0
2	570	55.723792263243	0
2	571	55.753633904923	0
2	572	55.875672423823	0
2	573	55.935779660074	0
2	574	56.051869782668	0
2	575	56.182792524736	0
2	576	56.270171606355	0
2	577	56.486447097015	0
2	578	56.709056865609	0
2	579	56.71808252543	0
2	580	56.723792263243	0
2	581	56.753633904923	0
2	582	56.875672423823	0
2	583	56.935779660074	0
2	584	57.051869782668	0
2	585	57.182792524736	0
2	586	57.270171606355	0
2	587	57.380171606355	0
2	588	57.486447097015	0
2	589	57.709056865609	0
2	590	57.71808252543	0
2	591	57.723792263243	0
2	592	57.753633904923	0
2	593	57.875672423823	0
2	594	57.935779660074	0
2	595	58.051869782668	0
2	596	58.182792524736	0
2	597	58.380171606355	0
2	598	58.486447097015	0
2	599	58.709056865609	0
2	600	58.71808252543	0
2	601	58.723792263243	0
2	602	58.753633904923	0
2	603	58.875672423823	0
2	604	58.935779660074	0
2	605	59.051869782668	0
2	606	59.182792524736	0
2	607	59.380171606355	0
2	608	59.486447097015	0
2	609	59.709056865609	0
2	610	59.71808252543	0
2	611	59.723792263243	0
2	612	59.753633904923	0
2	613	59.819056865609	0
2	614	59.875672423823	0
2	615	59.935779660074	0
2	616	60.051869782668	0
2	617	60.182792524736	0
2	618	60.380171606355	0
2	619	60.486447097015	0
2	620	60.71808252543	0
2	621	60.723792263243	0
2	622	60.753633904923	0
2	623	60.819056865609	0
2	624	60.82808252543	0
2	625	60.833792263243	0
2	626	60.875672423823	0
2	627	60.935779660074	0
2	628	61.051869782668	0
2	629	61.182792524736	0
2	630	61.380171606355	0
2	631	61.486447097015	0
2	632	61.753633904923	0
2	633	61.819056865609	0
2	634	61.82808252543	0
2	635	61.833792263243	0
2	636	61.875672423823	0
2	637	61.935779660074	0
2	638	61.985672423823	0
2	639	62.051869782668	0
2	640	62.182792524736	0
2	641	62.380171606355	0
2	642	62.486447097015	0
2	643	62.753633904923	0
2	644	62.819056865609	0
2	645	62.82808252543	0
2	646	62.833792263243	0
2	647	62.935779660074	0
2	648	62.985672423823	0
2	649	63.051869782668	0
2	650	63.182792524736	0
2	651	63.380171606355	0
2	652	63.486447097015	0
2	653	63.753633904923	0
2	654	63.819056865609	0
2	655	63.82808252543	0
2	656	63.833792263243	0
2	657	63.863633904923	0
2	658	63.935779660074	0
2	659	63.985672423823	0
2	660	64.051869782668	0
2	661	64.182792524736	0
2	662	64.292792524736	0
2	663	64.380171606355	0
2	664	64.486447097015	0
2	665	64.819056865609	0
2	666	64.82808252543	0
2	667	64.833792263243	0
2	668	64.863633904923	0
2	669	64.935779660074	0
2	670	64.985672423823	0
2	671	65.051869782668	0
2	672	65.161869782668	0
2	673	65.292792524736	0
2	674	65.380171606355	0
2	675	65.486447097015	0
2	676	65.819056865609	0
2	677	65.82808252543	0
2	678	65.833792263243	0
2	679	65.863633904923	0
2	680	65.935779660074	0
2	681	65.985672423823	0
2	682	66.161869782668	0
2	683	66.292792524736	0
2	684	66.380171606355	0
2	685	66.486447097015	0
2	686	66.819056865609	0
2	687	66.82808252543	0
2	688	66.833792263243	0
2	689	66.863633904923	0
2	690	66.935779660074	0
2	691	66.985672423823	0
2	692	67.161869782668	0
2	693	67.292792524736	0
2	694	67.380171606355	0
2	695	67.486447097015	0
2	696	67.819056865609	0
2	697	67.82808252543	0
2	698	67.833792263243	0
2	699	67.863633904923	0
2	700	67.935779660074	0
2	701	67.985672423823	0
2	702	68.161869782668	0
2	703	68.292792524736	0
2	704	68.380171606355	0
2	705	68.486447097015	0
2	706	68.819056865609	0
2	707	68.82808252543	0
2	708	68.833792263243	0
2	709	68.863633904923	0
2	710	68.935779660074	0
2	711	68.985672423823	0
2	712	69.161869782668	0
2	713	69.292792524736	0
2	714	69.380171606355	0
2	715	69.457133144755	0
2	716	69.486447097015	0
2	717	69.596447097015	0
2	718	69.819056865609	0
2	719	69.82808252543	0
2	720	69.833792263243	0
2	721	69.863633904923	0
2	722	69.935779660074	0
2	723	69.985672423823	0
2	724	70.045779660074	0
2	725	70.161869782668	0
2	726	70.292792524736	0
2	727	70.596447097015	0
2	728	70.819056865609	0
2	729	70.82808252543	0
2	730	70.833792263243	0
2	731	70.863633904923	0
2	732	70.985672423823	0
2	733	71.045779660074	0
2	734	71.161869782668	0
2	735	71.292792524736	0
2	736	71.596447097015	0
2	737	71.735138436327	0
2	738	71.82808252543	0
2	739	71.833792263243	0
2	740	71.863633904923	0
2	741	71.985672423823	0
2	742	72.045779660074	0
2	743	72.161869782668	0
2	744	72.292792524736	0
2	745	72.596447097015	0
2	746	72.749873833961	0
2	747	72.82808252543	0
2	748	72.863633904923	0
2	749	72.985672423823	0
2	750	73.045779660074	0
2	751	73.161869782668	0
2	752	73.292792524736	0
2	753	73.596447097015	0
2	754	73.82808252543	0
2	755	73.863633904923	0
2	756	73.985672423823	0
2	757	74.045779660074	0
2	758	74.161869782668	0
2	759	74.290994543266	0
2	760	74.292792524736	0
2	761	74.596447097015	0
2	762	74.863633904923	0
2	763	74.985672423823	0
2	764	75.045779660074	0
2	765	75.161869782668	0
2	766	75.292792524736	0
2	767	75.596447097015	0
2	768	75.863633904923	0
2	769	75.985672423823	0
2	770	76.045779660074	0
2	771	76.15749746508	0
2	772	76.161869782668	0
2	773	76.292792524736	0
2	774	76.441172046302	0
2	775	76.596447097015	0
2	776	76.863633904923	0
2	777	77.045779660074	0
2	778	77.161869782668	0
2	779	77.326545922759	0
2	780	77.596447097015	0
2	781	78.045779660074	0
2	782	78.161869782668	0
2	783	78.596447097015	0
2	784	79.045779660074	0
2	785	79.161869782668	0
2	786	79.333694823925	0
2	787	79.596447097015	0
2	788	80.045779660074	0
2	789	80.596447097015	0
2	790	81.045779660074	0
2	791	81.596447097015	0
2	792	81.831662665202	0
2	793	82.045779660074	0
2	794	82.20845309152	0
3	0	0	506.55944645405
3	0	0	506.55944645405
3	1	1	490.10115761038
3	11	2	473.6428687667
3	21	2.881988580817	459.1268459468
3	22	3	457.18457992303
3	31	3.881988580817	442.66855710313
3	32	4	440.72629107936
3	41	4.599056865609	430.86684015138
3	42	4.881988580817	426.21026825945
3	43	5	424.26800223569
3	51	5.599056865609	414.40855130771
3	52	5.881988580817	409.75197941578
3	53	6	407.80971339202
3	61	6.383029021182	401.50571112589
3	62	6.599056865609	397.95026246404
3	63	6.881988580817	393.29369057211
3	64	7	391.35142454834
3	71	7.383029021182	385.04742228222
3	72	7.599056865609	381.49197362037
3	73	7.881988580817	376.83540172844
3	74	8	374.89313570467
3	81	8.383029021182	368.58913343855
3	82	8.599056865609	365.03368477669
3	83	8.881988580817	360.37711288477
3	84	9	358.434846861
3	91	9.383029021182	352.13084459488
3	92	9.599056865609	348.57539593302
3	93	9.881988580817	343.91882404109
3	94	10	341.97655801733
3	101	10.383029021182	335.67255575121
3	102	10.599056865609	332.11710708935
3	103	10.881988580817	327.46053519742
3	104	11	325.51826917366
3	111	11.383029021182	319.21426690753
3	112	11.599056865609	315.65881824568
3	113	11.868682727108	311.2212379374
3	114	11.881988580817	311.00224635375
3	115	12	309.05998032998
3	121	12.383029021182	302.75597806386
3	122	12.441869782668	301.78755981554
3	123	12.599056865609	299.20052940201
3	124	12.868682727108	294.76294909373
3	125	12.881988580817	294.54395751008
3	126	13	292.60169148631
3	131	13.383029021182	286.29768922019
3	132	13.441869782668	285.32927097187
3	133	13.599056865609	282.74224055833
3	134	13.643633904923	282.00857876951
3	135	13.868682727108	278.30466025006
3	136	13.881988580817	278.08566866641
3	137	14	276.14340264264
3	141	14.383029021182	269.83940037652
3	142	14.441869782668	268.8709821282
3	143	14.599056865609	266.28395171466
3	144	14.643633904923	265.55028992584
3	145	14.868682727108	261.84637140639
3	146	14.881988580817	261.62737982273
3	147	15	259.68511379897
3	151	15.383029021182	253.38111153285
3	152	15.441869782668	252.41269328453
3	153	15.599056865609	249.82566287099
3	154	15.643633904923	249.09200108217
3	155	15.868682727108	245.38808256272
3	156	15.881988580817	245.16909097906
3	157	16	243.2268249553
3	161	16.383029021182	236.92282268917
3	162	16.441869782668	235.95440444086
3	163	16.599056865609	233.36737402732
3	164	16.643633904923	232.63371223849
3	165	16.868682727108	228.92979371904
3	166	16.881988580817	228.71080213539
3	167	17	226.76853611162
3	171	17.383029021182	220.4645338455
3	172	17.441869782668	219.49611559718
3	173	17.599056865609	216.90908518365
3	174	17.643633904923	216.17542339482
3	175	17.868682727108	212.47150487537
3	176	17.881988580817	212.25251329172
3	177	17.941653606661	211.27052906251
3	178	18	210.31024726795
3	181	18.325779660074	204.94847152306
3	182	18.383029021182	204.00624500183
3	183	18.441869782668	203.03782675351
3	184	18.599056865609	200.45079633997
3	185	18.626447097015	200
3	186	18.643633904923	200
3	187	18.868682727108	200
3	188	18.881988580817	200
3	189	18.941653606661	200
3	190	19	200
3	191	19.325779660074	200
3	192	19.383029021182	200
3	193	19.441869782668	200
3	194	19.599056865609	200
3	195	19.626447097015	200
3	196	19.643633904923	200
3	197	19.868682727108	200
3	198	19.881988580817	200
3	199	19.941653606661	200
3	200	20	200
3	201	20.325779660074	200
3	202	20.383029021182	200
3	203	20.441869782668	200
3	204	20.599056865609	200
3	205	20.626447097015	200
3	206	20.643633904923	200
3	207	20.868682727108	200
3	208	20.881988580817	200
3	209	20.941653606661	200
3	210	21	200
3	211	21.325779660074	200
3	212	21.383029021182	200
3	213	21.441869782668	200
3	214	21.599056865609	200
3	215	21.626447097015	200
3	216	21.643633904923	200
3	217	21.868682727108	200
3	218	21.881988580817	200
3	219	21.941653606661	200
3	220	22	200
3	221	22.325779660074	200
3	222	22.383029021182	200
3	223	22.441869782668	200
3	224	22.599056865609	200
3	225	22.626447097015	200
3	226	22.643633904923	200
3	227	22.868682727108	200
3	228	22.881988580817	200
3	229	22.941653606661	200
3	230	23	200
3	231	23.300863492173	200
3	232	23.325779660074	200
3	233	23.383029021182	200
3	234	23.441869782668	200
3	235	23.599056865609	200
3	236	23.626447097015	200
3	237	23.643633904923	200
3	238	23.868682727108	200
3	239	23.881988580817	200
3	240	23.941653606661	200
3	241	24.300863492173	200
3	242	24.325779660074	200
3	243	24.383029021182	200
3	244	24.441869782668	200
3	245	24.599056865609	200
3	246	24.626447097015	200
3	247	24.643633904923	200
3	248	24.868682727108	200
3	249	24.881988580817	200
3	250	24.941653606661	200
3	251	25.300863492173	200
3	252	25.325779660074	200
3	253	25.383029021182	200
3	254	25.441869782668	200
3	255	25.599056865609	200
3	256	25.626447097015	200
3	257	25.643633904923	200
3	258	25.868682727108	200
3	259	25.881988580817	200
3	260	25.941653606661	200
3	261	26.300863492173	200
3	262	26.325779660074	200
3	263	26.383029021182	200
3	264	26.441869782668	200
3	265	26.599056865609	200
3	266	26.626447097015	200
3	267	26.643633904923	200
3	268	26.868682727108	200
3	269	26.881988580817	200
3	270	26.941653606661	200
3	271	26.978682727108	200
3	272	27.300863492173	200
3	273	27.325779660074	200
3	274	27.383029021182	200
3	275	27.441869782668	200
3	276	27.599056865609	200
3	277	27.626447097015	200
3	278	27.643633904923	200
3	279	27.881988580817	200
3	280	27.941653606661	200
3	281	27.978682727108	200
3	282	27.991988580817	200
3	283	28.300863492173	200
3	284	28.325779660074	200
3	285	28.383029021182	200
3	286	28.441869782668	200
3	287	28.599056865609	200
3	288	28.626447097015	200
3	289	28.643633904923	200
3	290	28.941653606661	200
3	291	28.978682727108	200
3	292	28.991988580817	200
3	293	29.182792524736	200
3	294	29.300863492173	200
3	295	29.325779660074	200
3	296	29.383029021182	200
3	297	29.441869782668	200
3	298	29.599056865609	200
3	299	29.626447097015	200
3	300	29.643633904923	200
3	301	29.709056865609	200
3	302	29.941653606661	200
3	303	29.991988580817	200
3	304	30.182792524736	200
3	305	30.300863492173	200
3	306	30.325779660074	200
3	307	30.383029021182	200
3	308	30.441869782668	200
3	309	30.626447097015	200
3	310	30.643633904923	200
3	311	30.709056865609	200
3	312	30.941653606661	200
3	313	30.991988580817	200
3	314	31.182792524736	200
3	315	31.300863492173	200
3	316	31.325779660074	200
3	317	31.383029021182	200
3	318	31.441869782668	200
3	319	31.493029021182	200
3	320	31.626447097015	200
3	321	31.643633904923	200
3	322	31.709056865609	200
3	323	31.941653606661	200
3	324	31.991988580817	200
3	325	32.182792524736	200
3	326	32.270171606355	200
3	327	32.300863492173	200
3	328	32.325779660074	200
3	329	32.441869782668	200
3	330	32.493029021182	200
3	331	32.626447097015	200
3	332	32.643633904923	200
3	333	32.709056865609	200
3	334	32.941653606661	200
3	335	33.182792524736	200
3	336	33.270171606355	200
3	337	33.300863492173	200
3	338	33.325779660074	200
3	339	33.441869782668	200
3	340	33.493029021182	200
3	341	33.626447097015	200
3	342	33.643633904923	200
3	343	33.709056865609	200
3	344	33.941653606661	200
3	345	34.182792524736	200
3	346	34.270171606355	200
3	347	34.300863492173	200
3	348	34.325779660074	200
3	349	34.441869782668	200
3	350	34.493029021182	200
3	351	34.626447097015	200
3	352	34.643633904923	200
3	353	34.709056865609	200
3	354	34.941653606661	200
3	355	35.182792524736	200
3	356	35.270171606355	200
3	357	35.300863492173	200
3	358	35.325779660074	200
3	359	35.441869782668	200
3	360	35.493029021182	200
3	361	35.626447097015	200
3	362	35.643633904923	200
3	363	35.709056865609	200
3	364	35.941653606661	200
3	365	36.182792524736	200
3	366	36.270171606355	200
3	367	36.300863492173	200
3	368	36.325779660074	200
3	369	36.441869782668	200
3	370	36.493029021182	200
3	371	36.626447097015	200
3	372	36.643633904923	200
3	373	36.709056865609	200
3	374	36.875672423823	200
3	375	36.941653606661	200
3	376	37.182792524736	200
3	377	37.270171606355	200
3	378	37.300863492173	200
3	379	37.325779660074	200
3	380	37.441869782668	200
3	381	37.551869782668	200
3	382	37.626447097015	200
3	383	37.643633904923	200
3	384	37.709056865609	200
3	385	37.875672423823	200
3	386	37.941653606661	200
3	387	38.182792524736	200
3	388	38.270171606355	200
3	389	38.300863492173	200
3	390	38.325779660074	200
3	391	38.410863492173	200
3	392	38.551869782668	200
3	393	38.626447097015	200
3	394	38.643633904923	200
3	395	38.709056865609	200
3	396	38.753633904923	200
3	397	38.875672423823	200
3	398	38.941653606661	200
3	399	39.182792524736	200
3	400	39.270171606355	200
3	401	39.325779660074	200
3	402	39.410863492173	200
3	403	39.551869782668	200
3	404	39.626447097015	200
3	405	39.709056865609	200
3	406	39.753633904923	200
3	407	39.875672423823	200
3	408	39.941653606661	200
3	409	40.051869782668	200
3	410	40.182792524736	200
3	411	40.270171606355	200
3	412	40.325779660074	200
3	413	40.410863492173	200
3	414	40.626447097015	200
3	415	40.709056865609	200
3	416	40.753633904923	200
3	417	40.875672423823	200
3	418	40.941653606661	200
3	419	41.051869782668	200
3	420	41.182792524736	200
3	421	41.270171606355	200
3	422	41.325779660074	200
3	423	41.410863492173	200
3	424	41.626447097015	200
3	425	41.709056865609	200
3	426	41.753633904923	200
3	427	41.875672423823	200
3	428	41.941653606661	200
3	429	42.051869782668	200
3	430	42.182792524736	200
3	431	42.270171606355	200
3	432	42.325779660074	200
3	433	42.410863492173	200
3	434	42.626447097015	200
3	435	42.709056865609	200
3	436	42.753633904923	200
3	437	42.875672423823	200
3	438	42.941653606661	200
3	439	43.051653606661	200
3	440	43.051869782668	200
3	441	43.182792524736	200
3	442	43.270171606355	200
3	443	43.325779660074	200
3	444	43.410863492173	200
3	445	43.435779660074	200
3	446	43.626447097015	200
3	447	43.709056865609	200
3	448	43.736447097015	200
3	449	43.753633904923	200.34373615816
3	450	43.875672423823	202.78450653616
3	451	44.051653606661	206.30413019292
3	452	44.051869782668	206.30845371306
3	453	44.182792524736	208.92690855442
3	454	44.270171606355	210.6744901868
3	455	44.410863492173	213.48832790316
3	456	44.435779660074	213.98665126118
3	457	44.486447097015	215
3	458	44.709056865609	215
3	459	44.753633904923	215
3	460	44.875672423823	215
3	461	44.935779660074	215
3	462	45.051653606661	215
3	463	45.051869782668	215
3	464	45.182792524736	215
3	465	45.270171606355	215
3	466	45.410863492173	215
3	467	45.486447097015	215
3	468	45.709056865609	215
3	469	45.71808252543	215
3	470	45.723792263243	215
3	471	45.753633904923	215
3	472	45.875672423823	215
3	473	45.935779660074	215
3	474	46.051869782668	215
3	475	46.182792524736	215
3	476	46.270171606355	215
3	477	46.486447097015	215
3	478	46.709056865609	215
3	479	46.71808252543	215
3	480	46.723792263243	215
3	481	46.753633904923	215
3	482	46.875672423823	215
3	483	46.935779660074	215
3	484	47.051869782668	215
3	485	47.182792524736	215
3	486	47.270171606355	215
3	487	47.486447097015	215
3	488	47.709056865609	215
3	489	47.71808252543	215
3	490	47.723792263243	215
3	491	47.753633904923	215
3	492	47.875672423823	215
3	493	47.935779660074	215
3	494	48.051869782668	215
3	495	48.182792524736	215
3	496	48.270171606355	215
3	497	48.486447097015	215
3	498	48.709056865609	215
3	499	48.71808252543	215
3	500	48.723792263243	215
3	501	48.753633904923	215
3	502	48.875672423823	215
3	503	48.935779660074	215
3	504	49.051869782668	215
3	505	49.182792524736	215
3	506	49.270171606355	215
3	507	49.486447097015	215
3	508	49.709056865609	215
3	509	49.71808252543	215
3	510	49.723792263243	215
3	511	49.753633904923	215
3	512	49.875672423823	215
3	513	49.935779660074	215
3	514	50.051869782668	215
3	515	50.182792524736	215
3	516	50.270171606355	215
3	517	50.486447097015	215
3	518	50.709056865609	215
3	519	50.71808252543	215
3	520	50.723792263243	215
3	521	50.753633904923	215
3	522	50.875672423823	215
3	523	50.935779660074	215
3	524	51.051869782668	215
3	525	51.182792524736	215
3	526	51.270171606355	215
3	527	51.486447097015	215
3	528	51.709056865609	215
3	529	51.71808252543	215
3	530	51.723792263243	215
3	531	51.753633904923	215
3	532	51.875672423823	215
3	533	51.935779660074	215
3	534	52.051869782668	215
3	535	52.182792524736	215
3	536	52.270171606355	215
3	537	52.486447097015	215
3	538	52.709056865609	215
3	539	52.71808252543	215
3	540	52.723792263243	215
3	541	52.753633904923	215
3	542	52.875672423823	215
3	543	52.935779660074	215
3	544	53.051869782668	215
3	545	53.182792524736	215
3	546	53.270171606355	215
3	547	53.486447097015	215
3	548	53.709056865609	215
3	549	53.71808252543	215
3	550	53.723792263243	215
3	551	53.753633904923	215
3	552	53.875672423823	215
3	553	53.935779660074	215
3	554	54.051869782668	215
3	555	54.182792524736	215
3	556	54.270171606355	215
3	557	54.486447097015	215
3	558	54.709056865609	215
3	559	54.71808252543	215
3	560	54.723792263243	215
3	561	54.753633904923	215
3	562	54.875672423823	215
3	563	54.935779660074	215
3	564	55.051869782668	215
3	565	55.182792524736	215
3	566	55.270171606355	215
3	567	55.486447097015	215
3	568	55.709056865609	215
3	569	55.71808252543	215
3	570	55.723792263243	215
3	571	55.753633904923	215
3	572	55.875672423823	215
3	573	55.935779660074	215
3	574	56.051869782668	215
3	575	56.182792524736	215
3	576	56.270171606355	215
3	577	56.486447097015	215
3	578	56.709056865609	215
3	579	56.71808252543	215
3	580	56.723792263243	215
3	581	56.753633904923	215
3	582	56.875672423823	215
3	583	56.935779660074	215
3	584	57.051869782668	215
3	585	57.182792524736	215
3	586	57.270171606355	215
3	587	57.380171606355	215
3	588	57.486447097015	215
3	589	57.709056865609	215
3	590	57.71808252543	215
3	591	57.723792263243	215
3	592	57.753633904923	215
3	593	57.875672423823	215
3	594	57.935779660074	215
3	595	58.051869782668	215
3	596	58.182792524736	215
3	597	58.380171606355	215
3	598	58.486447097015	215
3	599	58.709056865609	215
3	600	58.71808252543	215
3	601	58.723792263243	215
3	602	58.753633904923	215
3	603	58.875672423823	215
3	604	58.935779660074	215
3	605	59.051869782668	215
3	606	59.182792524736	215
3	607	59.380171606355	215
3	608	59.486447097015	215
3	609	59.709056865609	215
3	610	59.71808252543	215
3	611	59.723792263243	215
3	612	59.753633904923	215
3	613	59.819056865609	215
3	614	59.875672423823	215
3	615	59.935779660074	215
3	616	60.051869782668	215
3	617	60.182792524736	215
3	618	60.380171606355	215
3	619	60.486447097015	215
3	620	60.71808252543	215
3	621	60.723792263243	215
3	622	60.753633904923	215
3	623	60.819056865609	215
3	624	60.82808252543	215
3	625	60.833792263243	215
3	626	60.875672423823	215
3	627	60.935779660074	215
3	628	61.051869782668	215
3	629	61.182792524736	215
3	630	61.380171606355	215
3	631	61.486447097015	215
3	632	61.753633904923	215
3	633	61.819056865609	215
3	634	61.82808252543	215
3	635	61.833792263243	215
3	636	61.875672423823	215
3	637	61.935779660074	215
3	638	61.985672423823	215
3	639	62.051869782668	215
3	640	62.182792524736	215
3	641	62.380171606355	215
3	642	62.486447097015	215
3	643	62.753633904923	215
3	644	62.819056865609	215
3	645	62.82808252543	215
3	646	62.833792263243	215
3	647	62.935779660074	215
3	648	62.985672423823	215
3	649	63.051869782668	215
3	650	63.182792524736	215
3	651	63.380171606355	215
3	652	63.486447097015	215
3	653	63.753633904923	215
3	654	63.819056865609	215
3	655	63.82808252543	215
3	656	63.833792263243	215
3	657	63.863633904923	215
3	658	63.935779660074	215
3	659	63.985672423823	215
3	660	64.051869782668	215
3	661	64.182792524736	215
3	662	64.292792524736	215
3	663	64.380171606355	215
3	664	64.486447097015	215
3	665	64.819056865609	215
3	666	64.82808252543	215
3	667	64.833792263243	215
3	668	64.863633904923	215
3	669	64.935779660074	215
3	670	64.985672423823	215
3	671	65.051869782668	215
3	672	65.161869782668	215
3	673	65.292792524736	215
3	674	65.380171606355	215
3	675	65.486447097015	215
3	676	65.819056865609	215
3	677	65.82808252543	215
3	678	65.833792263243	215
3	679	65.863633904923	215
3	680	65.935779660074	215
3	681	65.985672423823	215
3	682	66.161869782668	215
3	683	66.292792524736	215
3	684	66.380171606355	215
3	685	66.486447097015	215
3	686	66.819056865609	215
3	687	66.82808252543	215
3	688	66.833792263243	215
3	689	66.863633904923	215
3	690	66.935779660074	215
3	691	66.985672423823	215
3	692	67.161869782668	215
3	693	67.292792524736	215
3	694	67.380171606355	215
3	695	67.486447097015	215
3	696	67.819056865609	215
3	697	67.82808252543	215
3	698	67.833792263243	215
3	699	67.863633904923	215
3	700	67.935779660074	215
3	701	67.985672423823	215
3	702	68.161869782668	215
[...]
28	704	68.380171606355	194.14349598797
28	705	68.486447097015	193.35687009752
28	706	68.819056865609	190.89497174479
28	707	68.82808252543	190.82816595872
28	708	68.833792263243	190.78590383823
28	709	68.863633904923	190.56502310822
28	710	68.935779660074	190.03101739782
28	711	68.985672423823	189.66172303402
28	712	69.161869782668	188.35755211526
28	713	69.292792524736	187.38849313544
28	714	69.380171606355	186.74173396775
28	715	69.457133144755	186.1720829758
28	716	69.486447097015	185.9551080773
28	717	69.596447097015	185.14091425508
28	718	69.819056865609	183.49320972457
28	719	69.82808252543	183.4264039385
28	720	69.833792263243	183.38414181801
28	721	69.863633904923	183.163261088
28	722	69.935779660074	182.6292553776
28	723	69.985672423823	182.2599610138
28	724	70.045779660074	181.81506155538
28	725	70.161869782668	180.95579009504
28	726	70.292792524736	179.98673111522
28	727	70.596447097015	177.73915223486
28	728	70.819056865609	176.09144770435
28	729	70.82808252543	176.02464191828
28	730	70.833792263243	175.98237979779
28	731	70.863633904923	175.76149906778
28	732	70.985672423823	174.85819899358
28	733	71.045779660074	174.41329953516
28	734	71.161869782668	173.55402807482
28	735	71.292792524736	172.584969095
28	736	71.596447097015	170.33739021463
28	737	71.735138436327	169.31082992678
28	738	71.82808252543	168.62287989805
28	739	71.833792263243	168.58061777757
28	740	71.863633904923	168.35973704756
28	741	71.985672423823	167.45643697336
28	742	72.045779660074	167.01153751494
28	743	72.161869782668	166.1522660546
28	744	72.292792524736	165.18320707477
28	745	72.596447097015	162.93562819441
28	746	72.749873833961	161.8
28	747	72.82808252543	161.8
28	748	72.863633904923	161.8
28	749	72.985672423823	161.8
28	750	73.045779660074	161.8
28	751	73.161869782668	161.8
28	752	73.292792524736	161.8
28	753	73.596447097015	161.8
28	754	73.82808252543	161.8
28	755	73.863633904923	161.8
28	756	73.985672423823	161.8
28	757	74.045779660074	161.8
28	758	74.161869782668	161.8
28	759	74.290994543266	161.8
28	760	74.292792524736	161.8
28	761	74.596447097015	161.8
28	762	74.863633904923	161.8
28	763	74.985672423823	161.8
28	764	75.045779660074	161.8
28	765	75.161869782668	161.8
28	766	75.292792524736	161.8
28	767	75.596447097015	161.8
28	768	75.863633904923	161.8
28	769	75.985672423823	161.8
28	770	76.045779660074	161.8
28	771	76.15749746508	161.8
28	772	76.161869782668	161.8
28	773	76.292792524736	161.8
28	774	76.441172046302	161.8
28	775	76.596447097015	161.8
28	776	76.863633904923	161.8
28	777	77.045779660074	161.8
28	778	77.161869782668	161.8
28	779	77.326545922759	161.8
28	780	77.596447097015	161.8
28	781	78.045779660074	161.8
28	782	78.161869782668	161.8
28	783	78.596447097015	161.8
28	784	79.045779660074	161.8
28	785	79.161869782668	161.8
28	786	79.333694823925	161.8
28	787	79.596447097015	161.8
28	788	80.045779660074	161.8
28	789	80.596447097015	161.8
28	790	81.045779660074	161.8
28	791	81.596447097015	161.8
28	792	81.831662665202	161.8
28	793	82.045779660074	161.8
28	794	82.20845309152	161.8
29	0	0	0
29	0	0	0
29	1	1	0
29	11	2	0
29	21	2.881988580817	0
29	22	3	0
29	31	3.881988580817	0
29	32	4	0
29	41	4.599056865609	0
29	42	4.881988580817	0
29	43	5	0
29	51	5.599056865609	0
29	52	5.881988580817	0
29	53	6	0
29	61	6.383029021182	0
29	62	6.599056865609	0
29	63	6.881988580817	0
29	64	7	0
29	71	7.383029021182	0
29	72	7.599056865609	0
29	73	7.881988580817	0
29	74	8	0
29	81	8.383029021182	0
29	82	8.599056865609	0
29	83	8.881988580817	0
29	84	9	0
29	91	9.383029021182	0
29	92	9.599056865609	0
29	93	9.881988580817	0
29	94	10	0
29	101	10.383029021182	0
29	102	10.599056865609	0
29	103	10.881988580817	0
29	104	11	0
29	111	11.383029021182	0
29	112	11.599056865609	0
29	113	11.868682727108	0
29	114	11.881988580817	0
29	115	12	0
29	121	12.383029021182	0
29	122	12.441869782668	0
29	123	12.599056865609	0
29	124	12.868682727108	0
29	125	12.881988580817	0
29	126	13	0
29	131	13.383029021182	0
29	132	13.441869782668	0
29	133	13.599056865609	0
29	134	13.643633904923	0
29	135	13.868682727108	0
29	136	13.881988580817	0
29	137	14	0
29	141	14.383029021182	0
29	142	14.441869782668	0
29	143	14.599056865609	0
29	144	14.643633904923	0
29	145	14.868682727108	0
29	146	14.881988580817	0
29	147	15	0
29	151	15.383029021182	0
29	152	15.441869782668	0
29	153	15.599056865609	0
29	154	15.643633904923	0
29	155	15.868682727108	0
29	156	15.881988580817	0
29	157	16	0
29	161	16.383029021182	0
29	162	16.441869782668	0
29	163	16.599056865609	0
29	164	16.643633904923	0
29	165	16.868682727108	0
29	166	16.881988580817	0
29	167	17	0
29	171	17.383029021182	0
29	172	17.441869782668	0
29	173	17.599056865609	0
29	174	17.643633904923	0
29	175	17.868682727108	0
29	176	17.881988580817	0
29	177	17.941653606661	0
29	178	18	0
29	181	18.325779660074	0
29	182	18.383029021182	0
29	183	18.441869782668	0
29	184	18.599056865609	0
29	185	18.626447097015	0
29	186	18.643633904923	0
29	187	18.868682727108	0
29	188	18.881988580817	0
29	189	18.941653606661	0
29	190	19	0
29	191	19.325779660074	0
29	192	19.383029021182	0
29	193	19.441869782668	0
29	194	19.599056865609	0
29	195	19.626447097015	0
29	196	19.643633904923	0
29	197	19.868682727108	0
29	198	19.881988580817	0
29	199	19.941653606661	0
29	200	20	0
29	201	20.325779660074	0
29	202	20.383029021182	0
29	203	20.441869782668	0
29	204	20.599056865609	0
29	205	20.626447097015	0
29	206	20.643633904923	0
29	207	20.868682727108	0
29	208	20.881988580817	0
29	209	20.941653606661	0
29	210	21	0
29	211	21.325779660074	0
29	212	21.383029021182	0
29	213	21.441869782668	0
29	214	21.599056865609	0
29	215	21.626447097015	0
29	216	21.643633904923	0
29	217	21.868682727108	0
29	218	21.881988580817	0
29	219	21.941653606661	0
29	220	22	0
29	221	22.325779660074	0
29	222	22.383029021182	0
29	223	22.441869782668	0
29	224	22.599056865609	0
29	225	22.626447097015	0
29	226	22.643633904923	0
29	227	22.868682727108	0
29	228	22.881988580817	0
29	229	22.941653606661	0
29	230	23	0
29	231	23.300863492173	0
29	232	23.325779660074	0
29	233	23.383029021182	0
29	234	23.441869782668	0
29	235	23.599056865609	0
29	236	23.626447097015	0
29	237	23.643633904923	0
29	238	23.868682727108	0
29	239	23.881988580817	0
29	240	23.941653606661	0
29	241	24.300863492173	0
29	242	24.325779660074	0
29	243	24.383029021182	0
29	244	24.441869782668	0
29	245	24.599056865609	0
29	246	24.626447097015	0
29	247	24.643633904923	0
29	248	24.868682727108	0
29	249	24.881988580817	0
29	250	24.941653606661	0
29	251	25.300863492173	0
29	252	25.325779660074	0
29	253	25.383029021182	0
29	254	25.441869782668	0
29	255	25.599056865609	0
29	256	25.626447097015	0
29	257	25.643633904923	0
29	258	25.868682727108	0
29	259	25.881988580817	0
29	260	25.941653606661	0
29	261	26.300863492173	0
29	262	26.325779660074	0
29	263	26.383029021182	0
29	264	26.441869782668	0
29	265	26.599056865609	0
29	266	26.626447097015	0
29	267	26.643633904923	0
29	268	26.868682727108	0
29	269	26.881988580817	0
29	270	26.941653606661	0
29	271	26.978682727108	0
29	272	27.300863492173	0
29	273	27.325779660074	0
29	274	27.383029021182	0
29	275	27.441869782668	0
29	276	27.599056865609	0
29	277	27.626447097015	0
29	278	27.643633904923	0
29	279	27.881988580817	0
29	280	27.941653606661	0
29	281	27.978682727108	0
29	282	27.991988580817	0
29	283	28.300863492173	0
29	284	28.325779660074	0
29	285	28.383029021182	0
29	286	28.441869782668	0
29	287	28.599056865609	0
29	288	28.626447097015	0
29	289	28.643633904923	0
29	290	28.941653606661	0
29	291	28.978682727108	0
29	292	28.991988580817	0
29	293	29.182792524736	0
29	294	29.300863492173	0
29	295	29.325779660074	0
29	296	29.383029021182	0
29	297	29.441869782668	0
29	298	29.599056865609	0
29	299	29.626447097015	0
29	300	29.643633904923	0
29	301	29.709056865609	0
29	302	29.941653606661	0
29	303	29.991988580817	0
29	304	30.182792524736	0
29	305	30.300863492173	0
29	306	30.325779660074	0
29	307	30.383029021182	0
29	308	30.441869782668	0
29	309	30.626447097015	0
29	310	30.643633904923	0
29	311	30.709056865609	0
29	312	30.941653606661	0
29	313	30.991988580817	0
29	314	31.182792524736	0
29	315	31.300863492173	0
29	316	31.325779660074	0
29	317	31.383029021182	0
29	318	31.441869782668	0
29	319	31.493029021182	0
29	320	31.626447097015	0
29	321	31.643633904923	0
29	322	31.709056865609	0
29	323	31.941653606661	0
29	324	31.991988580817	0
29	325	32.182792524736	0
29	326	32.270171606355	0
29	327	32.300863492173	0
29	328	32.325779660074	0
29	329	32.441869782668	0
29	330	32.493029021182	0
29	331	32.626447097015	0
29	332	32.643633904923	0
29	333	32.709056865609	0
29	334	32.941653606661	0
29	335	33.182792524736	0
29	336	33.270171606355	0
29	337	33.300863492173	0
29	338	33.325779660074	0
29	339	33.441869782668	0
29	340	33.493029021182	0
29	341	33.626447097015	0
29	342	33.643633904923	0
29	343	33.709056865609	0
29	344	33.941653606661	0
29	345	34.182792524736	0
29	346	34.270171606355	0
29	347	34.300863492173	0
29	348	34.325779660074	0
29	349	34.441869782668	0
29	350	34.493029021182	0
29	351	34.626447097015	0
29	352	34.643633904923	0
29	353	34.709056865609	0
29	354	34.941653606661	0
29	355	35.182792524736	0
29	356	35.270171606355	0
29	357	35.300863492173	0
29	358	35.325779660074	0
29	359	35.441869782668	0
29	360	35.493029021182	0
29	361	35.626447097015	0
29	362	35.643633904923	0
29	363	35.709056865609	0
29	364	35.941653606661	0
29	365	36.182792524736	0
29	366	36.270171606355	0
29	367	36.300863492173	0
29	368	36.325779660074	0
29	369	36.441869782668	0
29	370	36.493029021182	0
29	371	36.626447097015	0
29	372	36.643633904923	0
29	373	36.709056865609	0
29	374	36.875672423823	0
29	375	36.941653606661	0
29	376	37.182792524736	0
29	377	37.270171606355	0
29	378	37.300863492173	0
29	379	37.325779660074	0
29	380	37.441869782668	0
29	381	37.551869782668	0
29	382	37.626447097015	0
29	383	37.643633904923	0
29	384	37.709056865609	0
29	385	37.875672423823	0
29	386	37.941653606661	0
29	387	38.182792524736	0
29	388	38.270171606355	0
29	389	38.300863492173	0
29	390	38.325779660074	0
29	391	38.410863492173	0
29	392	38.551869782668	0
29	393	38.626447097015	0
29	394	38.643633904923	0
29	395	38.709056865609	0
29	396	38.753633904923	0
29	397	38.875672423823	0
29	398	38.941653606661	0
29	399	39.182792524736	0
29	400	39.270171606355	0
29	401	39.325779660074	0
29	402	39.410863492173	0
29	403	39.551869782668	0
29	404	39.626447097015	0
29	405	39.709056865609	0
29	406	39.753633904923	0
29	407	39.875672423823	0
29	408	39.941653606661	0
29	409	40.051869782668	0
29	410	40.182792524736	0
29	411	40.270171606355	0
29	412	40.325779660074	0
29	413	40.410863492173	0
29	414	40.626447097015	0
29	415	40.709056865609	0
29	416	40.753633904923	0
29	417	40.875672423823	0
29	418	40.941653606661	0
29	419	41.051869782668	0
29	420	41.182792524736	0
29	421	41.270171606355	0
29	422	41.325779660074	0
29	423	41.410863492173	0
29	424	41.626447097015	0
29	425	41.709056865609	0
29	426	41.753633904923	0
29	427	41.875672423823	0
29	428	41.941653606661	0
29	429	42.051869782668	0
29	430	42.182792524736	0
29	431	42.270171606355	0
29	432	42.325779660074	0
29	433	42.410863492173	0
29	434	42.626447097015	0
29	435	42.709056865609	0
29	436	42.753633904923	0
29	437	42.875672423823	0
29	438	42.941653606661	0
29	439	43.051653606661	0
29	440	43.051869782668	0
29	441	43.182792524736	0
29	442	43.270171606355	0
29	443	43.325779660074	0
29	444	43.410863492173	0
29	445	43.435779660074	0
29	446	43.626447097015	0
29	447	43.709056865609	0
29	448	43.736447097015	0
29	449	43.753633904923	0
29	450	43.875672423823	0
29	451	44.051653606661	0
29	452	44.051869782668	0
29	453	44.182792524736	0
29	454	44.270171606355	0
29	455	44.410863492173	0
29	456	44.435779660074	0
29	457	44.486447097015	0
29	458	44.709056865609	0
29	459	44.753633904923	0
29	460	44.875672423823	0
29	461	44.935779660074	0
29	462	45.051653606661	0
29	463	45.051869782668	0
29	464	45.182792524736	0
29	465	45.270171606355	0
29	466	45.410863492173	0
29	467	45.486447097015	0
29	468	45.709056865609	0
29	469	45.71808252543	0
29	470	45.723792263243	0
29	471	45.753633904923	0
29	472	45.875672423823	0
29	473	45.935779660074	0
29	474	46.051869782668	0
29	475	46.182792524736	0
29	476	46.270171606355	0
29	477	46.486447097015	0
29	478	46.709056865609	0
29	479	46.71808252543	0
29	480	46.723792263243	0
29	481	46.753633904923	0
29	482	46.875672423823	0
29	483	46.935779660074	0
29	484	47.051869782668	0
29	485	47.182792524736	0
29	486	47.270171606355	0
29	487	47.486447097015	0
29	488	47.709056865609	0
29	489	47.71808252543	0
29	490	47.723792263243	0
29	491	47.753633904923	0
29	492	47.875672423823	0
29	493	47.935779660074	0
29	494	48.051869782668	0
29	495	48.182792524736	0
29	496	48.270171606355	0
29	497	48.486447097015	0
29	498	48.709056865609	0
29	499	48.71808252543	0
29	500	48.723792263243	0
29	501	48.753633904923	0
29	502	48.875672423823	0
29	503	48.935779660074	0
29	504	49.051869782668	0
29	505	49.182792524736	0
29	506	49.270171606355	0
29	507	49.486447097015	0
29	508	49.709056865609	0
29	509	49.71808252543	0
29	510	49.723792263243	0
29	511	49.753633904923	0
29	512	49.875672423823	0
29	513	49.935779660074	0
29	514	50.051869782668	0
29	515	50.182792524736	0
29	516	50.270171606355	0
29	517	50.486447097015	0
29	518	50.709056865609	0
29	519	50.71808252543	0
29	520	50.723792263243	0
29	521	50.753633904923	0
29	522	50.875672423823	0
29	523	50.935779660074	0
29	524	51.051869782668	0
29	525	51.182792524736	0
29	526	51.270171606355	0
29	527	51.486447097015	0
29	528	51.709056865609	0
29	529	51.71808252543	0
29	530	51.723792263243	0
29	531	51.753633904923	0
29	532	51.875672423823	0
29	533	51.935779660074	0
29	534	52.051869782668	0
29	535	52.182792524736	0
29	536	52.270171606355	0
29	537	52.486447097015	0
29	538	52.709056865609	0
29	539	52.71808252543	0
29	540	52.723792263243	0
29	541	52.753633904923	0
29	542	52.875672423823	0
29	543	52.935779660074	0
29	544	53.051869782668	0
29	545	53.182792524736	0
29	546	53.270171606355	0
29	547	53.486447097015	0
29	548	53.709056865609	0
29	549	53.71808252543	0
29	550	53.723792263243	0
29	551	53.753633904923	0
29	552	53.875672423823	0
29	553	53.935779660074	0
29	554	54.051869782668	0
29	555	54.182792524736	0
29	556	54.270171606355	0
29	557	54.486447097015	0
29	558	54.709056865609	0
29	559	54.71808252543	0
29	560	54.723792263243	0
29	561	54.753633904923	0
29	562	54.875672423823	0
29	563	54.935779660074	0
29	564	55.051869782668	0
29	565	55.182792524736	0
29	566	55.270171606355	0
29	567	55.486447097015	0
29	568	55.709056865609	0
29	569	55.71808252543	0
29	570	55.723792263243	0
29	571	55.753633904923	0
29	572	55.875672423823	0
29	573	55.935779660074	0
29	574	56.051869782668	0
29	575	56.182792524736	0
29	576	56.270171606355	0
29	577	56.486447097015	0
29	578	56.709056865609	0
29	579	56.71808252543	0
29	580	56.723792263243	0
29	581	56.753633904923	0
29	582	56.875672423823	0
29	583	56.935779660074	0
29	584	57.051869782668	0
29	585	57.182792524736	0
29	586	57.270171606355	0
29	587	57.380171606355	0
29	588	57.486447097015	0
29	589	57.709056865609	0
29	590	57.71808252543	0
29	591	57.723792263243	0
29	592	57.753633904923	0
29	593	57.875672423823	0
29	594	57.935779660074	0
29	595	58.051869782668	0
29	596	58.182792524736	0
29	597	58.380171606355	0
29	598	58.486447097015	0
29	599	58.709056865609	0
29	600	58.71808252543	0
29	601	58.723792263243	0
29	602	58.753633904923	0
29	603	58.875672423823	0
29	604	58.935779660074	0
29	605	59.051869782668	0
29	606	59.182792524736	0
29	607	59.380171606355	0
29	608	59.486447097015	0
29	609	59.709056865609	0
29	610	59.71808252543	0
29	611	59.723792263243	0
29	612	59.753633904923	0
29	613	59.819056865609	0
29	614	59.875672423823	0
29	615	59.935779660074	0
29	616	60.051869782668	0
29	617	60.182792524736	0
29	618	60.380171606355	0
29	619	60.486447097015	0
29	620	60.71808252543	0
29	621	60.723792263243	0
29	622	60.753633904923	0
29	623	60.819056865609	0
29	624	60.82808252543	0
29	625	60.833792263243	0
29	626	60.875672423823	0
29	627	60.935779660074	0
29	628	61.051869782668	0
29	629	61.182792524736	0
29	630	61.380171606355	0
29	631	61.486447097015	0
29	632	61.753633904923	0
29	633	61.819056865609	0
29	634	61.82808252543	0
29	635	61.833792263243	0
29	636	61.875672423823	0
29	637	61.935779660074	0
29	638	61.985672423823	0
29	639	62.051869782668	0
29	640	62.182792524736	0
29	641	62.380171606355	0
29	642	62.486447097015	0
29	643	62.753633904923	0
29	644	62.819056865609	0
29	645	62.82808252543	0
29	646	62.833792263243	0
29	647	62.935779660074	0
29	648	62.985672423823	0
29	649	63.051869782668	0
29	650	63.182792524736	0
29	651	63.380171606355	0
29	652	63.486447097015	0
29	653	63.753633904923	0
29	654	63.819056865609	0
29	655	63.82808252543	0
29	656	63.833792263243	0
29	657	63.863633904923	0
29	658	63.935779660074	0
29	659	63.985672423823	0
29	660	64.051869782668	0
29	661	64.182792524736	0
29	662	64.292792524736	0
29	663	64.380171606355	0
29	664	64.486447097015	0
29	665	64.819056865609	0
29	666	64.82808252543	0
29	667	64.833792263243	0
29	668	64.863633904923	0
29	669	64.935779660074	0
29	670	64.985672423823	0
29	671	65.051869782668	0
29	672	65.161869782668	0
29	673	65.292792524736	0
29	674	65.380171606355	0
29	675	65.486447097015	0
29	676	65.819056865609	0
29	677	65.82808252543	0
29	678	65.833792263243	0
29	679	65.863633904923	0
29	680	65.935779660074	0
29	681	65.985672423823	0
29	682	66.161869782668	0
29	683	66.292792524736	0
29	684	66.380171606355	0
29	685	66.486447097015	0
29	686	66.819056865609	0
29	687	66.82808252543	0
29	688	66.833792263243	0
29	689	66.863633904923	0
29	690	66.935779660074	0
29	691	66.985672423823	0
29	692	67.161869782668	0
29	693	67.292792524736	0
29	694	67.380171606355	0
29	695	67.486447097015	0
29	696	67.819056865609	0
29	697	67.82808252543	0
29	698	67.833792263243	0
29	699	67.863633904923	0
29	700	67.935779660074	0
29	701	67.985672423823	0
29	702	68.161869782668	0
29	703	68.292792524736	0
29	704	68.380171606355	0
29	705	68.486447097015	0
29	706	68.819056865609	0
29	707	68.82808252543	0
29	708	68.833792263243	0
29	709	68.863633904923	0
29	710	68.935779660074	0
29	711	68.985672423823	0
29	712	69.161869782668	0
29	713	69.292792524736	0
29	714	69.380171606355	0
29	715	69.457133144755	0
29	716	69.486447097015	0
29	717	69.596447097015	0
29	718	69.819056865609	0
29	719	69.82808252543	0
29	720	69.833792263243	0
29	721	69.863633904923	0
29	722	69.935779660074	0
29	723	69.985672423823	0
29	724	70.045779660074	0
29	725	70.161869782668	0
29	726	70.292792524736	0
29	727	70.596447097015	0
29	728	70.819056865609	0
29	729	70.82808252543	0
29	730	70.833792263243	0
29	731	70.863633904923	0
29	732	70.985672423823	0
29	733	71.045779660074	0
29	734	71.161869782668	0
29	735	71.292792524736	0
29	736	71.596447097015	0
29	737	71.735138436327	0
29	738	71.82808252543	0
29	739	71.833792263243	0
29	740	71.863633904923	0
29	741	71.985672423823	0
29	742	72.045779660074	0
29	743	72.161869782668	0
29	744	72.292792524736	0
29	745	72.596447097015	0
29	746	72.749873833961	0
29	747	72.82808252543	0
29	748	72.863633904923	0
29	749	72.985672423823	0
29	750	73.045779660074	0
29	751	73.161869782668	0
29	752	73.292792524736	0
29	753	73.596447097015	0
29	754	73.82808252543	0
29	755	73.863633904923	0
29	756	73.985672423823	0
29	757	74.045779660074	0
29	758	74.161869782668	0
29	759	74.290994543266	0
29	760	74.292792524736	0
29	761	74.596447097015	0
29	762	74.863633904923	0
29	763	74.985672423823	0
29	764	75.045779660074	0
29	765	75.161869782668	0
29	766	75.292792524736	0
29	767	75.596447097015	0
29	768	75.863633904923	0
29	769	75.985672423823	0
29	770	76.045779660074	0
29	771	76.15749746508	0
29	772	76.161869782668	0
29	773	76.292792524736	0
29	774	76.441172046302	0
29	775	76.596447097015	0
29	776	76.863633904923	0
29	777	77.045779660074	0
29	778	77.161869782668	0
29	779	77.326545922759	0
29	780	77.596447097015	0
29	781	78.045779660074	0
29	782	78.161869782668	0
29	783	78.596447097015	0
29	784	79.045779660074	0
29	785	79.161869782668	0
29	786	79.333694823925	0
29	787	79.596447097015	0
29	788	80.045779660074	0
29	789	80.596447097015	0
29	790	81.045779660074	0
29	791	81.596447097015	0
29	792	81.831662665202	0
29	793	82.045779660074	0
29	794	82.20845309152	0

