version 3
run General-0-20250609-16:20:02-415223
attr configname General
attr datetime 20250609-16:20:02
attr datetimef 20250609-162002
attr experiment General
attr inifile omnetpp.ini
attr iterationvars ""
attr iterationvarsd ""
attr iterationvarsf ""
attr measurement ""
attr network DroneNetwork
attr processid 415223
attr repetition 0
attr replication #0
attr resultdir results
attr runnumber 0
attr seedset 0
config image-path ../inet4.4/images
config network DroneNetwork
config sim-time-limit 1d
config simtime-resolution -11
config repeat 30
config **.vector-recording true
config rng-class cMersenneTwister
config *.configurator.typename Ipv4NetworkConfigurator
config **.ipv4Delayer.config "xmldoc(\"/home/alperen/omnetpp-6.0/samples/flora/simulations/cloudDelays.xml\")"
config **.radio.radioMediumModule "\"LoRaMedium\""
config **.LoRaMedium.pathLossType "\"LoRaLogNormalShadowing\""
config **.LoRaMedium.mediumLimitCacheType "\"LoRaMediumCache\""
config **.LoRaMedium.rangeFilter "\"communicationRange\""
config **.LoRaMedium.neighborCacheType "\"LoRaNeighborCache\""
config **.LoRaMedium.neighborCache.range 546m
config **.LoRaMedium.neighborCache.refillPeriod 3000s
config **.minInterferenceTime 0s
config **.displayAddresses false
config **.maxTransmissionDuration 4s
config **.energyDetection -110dBm
config **.updateInterval 2s
config **.alohaChannelModel false
config LoRaNetworkTest.**.radio.separateTransmissionParts false
config LoRaNetworkTest.**.radio.separateReceptionParts false
config **.sigma 3.57
config **.numberOfNodes 1
config **.constraintAreaMinX 0m
config **.constraintAreaMinY 0m
config **.constraintAreaMinZ 0m
config **.constraintAreaMaxX 600m
config **.constraintAreaMaxY 600m
config **.constraintAreaMaxZ 0m
config **.Drone[*].**.initialX 200m
config **.Drone[*].**.initialY 200m
config **.Drone[*].**initialLoRaSF 12
config **.Drone[*].**initialLoRaTP 14dBm
config **.Drone[*].**initialLoRaBW "125 kHz"
config **.Drone[*].**initialLoRaCR 4
config **.Drone[*].**.initFromDisplayString false
config **.Drone[*].**.evaluateADRinNode true
config **.Drone[*].LoRaNic.radio.energyConsumer.typename LoRaEnergyConsumer
config **.Drone[*].LoRaNic.energySourceModule "\"^.IdealEpEnergyStorage\""
config **.Drone[*].**.energySourceModule "\"^.IdealEpEnergyStorage\""
config **.Drone[*].LoRaNic.radio.energyConsumer.configFile "xmldoc(\"/home/alperen/omnetpp-6.0/samples/flora/simulations/energyConsumptionParameters.xml\")"
config **.Drone[*].numUdpApps 2
config **.Drone[*].udpApp[0].typename SimpleLoRaApp
config **.Drone[*].udpApp[0].localPort 6000
config **.Drone[*].udpApp[0].destPort 2000
config **.Drone[*].udpApp[0].destAddresses "\"loRaGW[0]\""
config **.Drone[*].udpApp[0].timeToFirstPacket uniform(0s,1s)
config **.Drone[*].udpApp[0].timeToNextPacket exponential(1s)
config **.Drone[*].udpApp[1].typename UdpSink
config **.Drone[*].udpApp[1].localPort 7000
config **.numberOfGateways 1
config **.loRaGW[0].**.initialX 200m
config **.loRaGW[0].**.initialY 200m
config **.loRaGW[0].**.initFromDisplayString false
config **.LoRaGWNic.radio.iAmGateway true
config **.loRaGW[0].numUdpApps 1
config **.loRaGW[0].udpApp[0].typename UdpForwardApp
config **.loRaGW[0].udpApp[0].localPort 2000
config **.loRaGW[0].udpApp[0].destPort 7000
config **.loRaGW[0].udpApp[0].destAddresses "\"Drone[0..9]\""
config **.networkServer.numApps 1
config **.networkServer.app[0].typename NetworkServerApp
config **.networkServer.app[0].localPort 1000
config **.networkServer.app[0].destPort 2000
config **.networkServer.app[0].destAddresses "\"loRaGW[0]\""
config **.networkServer.**.evaluateADRinServer true
config **.networkServer.app[0].adrMethod "\"avg\""
config **.numberOfPacketsToSend 0
config **.timeToFirstPacket uniform(0s,1s)
config **.timeToNextPacket exponential(1s)

par DroneNetwork.networkServer.ethg$o[0].channel typename "\"inet.node.ethernet.Eth1G\""
par DroneNetwork.networkServer.ethg$o[0].channel disabled false
attr mutable ""
par DroneNetwork.networkServer.ethg$o[0].channel delay 5e-08s
attr mutable ""
attr unit s
par DroneNetwork.networkServer.ethg$o[0].channel datarate 1e+09bps
attr mutable ""
attr unit bps
par DroneNetwork.networkServer.ethg$o[0].channel ber 0
attr mutable ""
par DroneNetwork.networkServer.ethg$o[0].channel per 0
attr mutable ""
par DroneNetwork.networkServer.ethg$o[0].channel length 10m
attr unit m
par DroneNetwork.nsRouter.ethg$o[0].channel typename "\"inet.node.ethernet.Eth1G\""
par DroneNetwork.nsRouter.ethg$o[0].channel disabled false
attr mutable ""
par DroneNetwork.nsRouter.ethg$o[0].channel delay 5e-08s
attr mutable ""
attr unit s
par DroneNetwork.nsRouter.ethg$o[0].channel datarate 1e+09bps
attr mutable ""
attr unit bps
par DroneNetwork.nsRouter.ethg$o[0].channel ber 0
attr mutable ""
par DroneNetwork.nsRouter.ethg$o[0].channel per 0
attr mutable ""
par DroneNetwork.nsRouter.ethg$o[0].channel length 10m
attr unit m
par DroneNetwork.nsRouter.pppg$o[0].channel typename "\"inet.node.ethernet.Eth1G\""
par DroneNetwork.nsRouter.pppg$o[0].channel disabled false
attr mutable ""
par DroneNetwork.nsRouter.pppg$o[0].channel delay 5e-08s
attr mutable ""
attr unit s
par DroneNetwork.nsRouter.pppg$o[0].channel datarate 1e+09bps
attr mutable ""
attr unit bps
par DroneNetwork.nsRouter.pppg$o[0].channel ber 0
attr mutable ""
par DroneNetwork.nsRouter.pppg$o[0].channel per 0
attr mutable ""
par DroneNetwork.nsRouter.pppg$o[0].channel length 10m
attr unit m
par DroneNetwork.internetCloud.pppg$o[0].channel typename "\"inet.node.ethernet.Eth1G\""
par DroneNetwork.internetCloud.pppg$o[0].channel disabled false
attr mutable ""
par DroneNetwork.internetCloud.pppg$o[0].channel delay 5e-08s
attr mutable ""
attr unit s
par DroneNetwork.internetCloud.pppg$o[0].channel datarate 1e+09bps
attr mutable ""
attr unit bps
par DroneNetwork.internetCloud.pppg$o[0].channel ber 0
attr mutable ""
par DroneNetwork.internetCloud.pppg$o[0].channel per 0
attr mutable ""
par DroneNetwork.internetCloud.pppg$o[0].channel length 10m
attr unit m
par DroneNetwork.internetCloud.pppg$o[1].channel typename "\"inet.node.ethernet.Eth1G\""
par DroneNetwork.internetCloud.pppg$o[1].channel disabled false
attr mutable ""
par DroneNetwork.internetCloud.pppg$o[1].channel delay 5e-08s
attr mutable ""
attr unit s
par DroneNetwork.internetCloud.pppg$o[1].channel datarate 1e+09bps
attr mutable ""
attr unit bps
par DroneNetwork.internetCloud.pppg$o[1].channel ber 0
attr mutable ""
par DroneNetwork.internetCloud.pppg$o[1].channel per 0
attr mutable ""
par DroneNetwork.internetCloud.pppg$o[1].channel length 10m
attr unit m
par DroneNetwork.gwRouter[0].pppg$o[0].channel typename "\"inet.node.ethernet.Eth1G\""
par DroneNetwork.gwRouter[0].pppg$o[0].channel disabled false
attr mutable ""
par DroneNetwork.gwRouter[0].pppg$o[0].channel delay 5e-08s
attr mutable ""
attr unit s
par DroneNetwork.gwRouter[0].pppg$o[0].channel datarate 1e+09bps
attr mutable ""
attr unit bps
par DroneNetwork.gwRouter[0].pppg$o[0].channel ber 0
attr mutable ""
par DroneNetwork.gwRouter[0].pppg$o[0].channel per 0
attr mutable ""
par DroneNetwork.gwRouter[0].pppg$o[0].channel length 10m
attr unit m
par DroneNetwork.gwRouter[0].ethg$o[0].channel typename "\"inet.node.ethernet.Eth1G\""
par DroneNetwork.gwRouter[0].ethg$o[0].channel disabled false
attr mutable ""
par DroneNetwork.gwRouter[0].ethg$o[0].channel delay 5e-08s
attr mutable ""
attr unit s
par DroneNetwork.gwRouter[0].ethg$o[0].channel datarate 1e+09bps
attr mutable ""
attr unit bps
par DroneNetwork.gwRouter[0].ethg$o[0].channel ber 0
attr mutable ""
par DroneNetwork.gwRouter[0].ethg$o[0].channel per 0
attr mutable ""
par DroneNetwork.gwRouter[0].ethg$o[0].channel length 10m
attr unit m
par DroneNetwork.loRaGW[0].ethg$o[0].channel typename "\"inet.node.ethernet.Eth1G\""
par DroneNetwork.loRaGW[0].ethg$o[0].channel disabled false
attr mutable ""
par DroneNetwork.loRaGW[0].ethg$o[0].channel delay 5e-08s
attr mutable ""
attr unit s
par DroneNetwork.loRaGW[0].ethg$o[0].channel datarate 1e+09bps
attr mutable ""
attr unit bps
par DroneNetwork.loRaGW[0].ethg$o[0].channel ber 0
attr mutable ""
par DroneNetwork.loRaGW[0].ethg$o[0].channel per 0
attr mutable ""
par DroneNetwork.loRaGW[0].ethg$o[0].channel length 10m
attr unit m
par DroneNetwork.Drone1.interfaceTable typename "\"inet.networklayer.common.InterfaceTable\""
par DroneNetwork.Drone1.interfaceTable displayAddresses false
par DroneNetwork.Drone1.mobility typename "\"inet.mobility.single.TurtleMobility\""
par DroneNetwork.Drone1.mobility subjectModule "\"^\""
par DroneNetwork.Drone1.mobility coordinateSystemModule "\"\""
par DroneNetwork.Drone1.mobility displayStringTextFormat "\"p: %p\\nv: %v\""
attr mutable ""
par DroneNetwork.Drone1.mobility updateDisplayString true
par DroneNetwork.Drone1.mobility constraintAreaMinX 0m
attr unit m
par DroneNetwork.Drone1.mobility constraintAreaMinY 0m
attr unit m
par DroneNetwork.Drone1.mobility constraintAreaMinZ 0m
attr unit m
par DroneNetwork.Drone1.mobility constraintAreaMaxX 600m
attr unit m
par DroneNetwork.Drone1.mobility constraintAreaMaxY 600m
attr unit m
par DroneNetwork.Drone1.mobility constraintAreaMaxZ 0m
attr unit m
par DroneNetwork.Drone1.mobility updateInterval 2s
attr unit s
par DroneNetwork.Drone1.mobility faceForward true
par DroneNetwork.Drone1.mobility turtleScript "<movement id=\"1\">...</movement> at /home/alperen/omnetpp-6.0/samples/AirDroneProject//turtle1.xml:4"
par DroneNetwork.Drone1.LoRaNic.radioIn.channel typename "\"ned.IdealChannel\""
par DroneNetwork.Drone1.LoRaNic.mac.upperLayerOut.channel typename "\"ned.IdealChannel\""
par DroneNetwork.Drone1.LoRaNic.upperLayerIn.channel typename "\"ned.IdealChannel\""
par DroneNetwork.Drone1.LoRaNic.queue typename "\"inet.queueing.queue.DropTailQueue\""
par DroneNetwork.Drone1.LoRaNic.queue displayStringTextFormat "\"contains %p pk (%l) pushed %u\\npulled %o removed %r dropped %d\""
par DroneNetwork.Drone1.LoRaNic.queue packetCapacity -1
par DroneNetwork.Drone1.LoRaNic.queue dataCapacity -1b
attr unit b
par DroneNetwork.Drone1.LoRaNic.queue dropperClass "\"inet::queueing::PacketAtCollectionEndDropper\""
par DroneNetwork.Drone1.LoRaNic.queue comparatorClass "\"\""
par DroneNetwork.Drone1.LoRaNic.queue bufferModule "\"\""
scalar DroneNetwork.Drone1.LoRaNic.queue queueLength:last nan
attr autoWarmupFilter false
attr interpolationmode sample-hold
attr recordingmode last
attr source "warmup(atomic(constant0(packetPushEnded) + count(packetPushStarted) - count(packetPulled) - count(packetRemoved) - count(packetDropped)))"
attr title "queue length, last"
attr unit pk
scalar DroneNetwork.Drone1.LoRaNic.queue queueLength:max nan
attr autoWarmupFilter false
attr interpolationmode sample-hold
attr recordingmode max
attr source "warmup(atomic(constant0(packetPushEnded) + count(packetPushStarted) - count(packetPulled) - count(packetRemoved) - count(packetDropped)))"
attr title "queue length, max"
attr unit pk
scalar DroneNetwork.Drone1.LoRaNic.queue queueLength:timeavg -nan
attr autoWarmupFilter false
attr interpolationmode sample-hold
attr recordingmode timeavg
attr source "warmup(atomic(constant0(packetPushEnded) + count(packetPushStarted) - count(packetPulled) - count(packetRemoved) - count(packetDropped)))"
attr title "queue length, timeavg"
attr unit pk
scalar DroneNetwork.Drone1.LoRaNic.queue queueBitLength:last nan
attr autoWarmupFilter false
attr interpolationmode sample-hold
attr recordingmode last
attr source "warmup(atomic(constant0(packetPushEnded) + sum(packetLength(packetPushStarted)) - sum(packetLength(packetPulled)) - sum(packetLength(packetRemoved)) - sum(packetLength(packetDropped))))"
attr title "queue bit length, last"
attr unit b
scalar DroneNetwork.Drone1.LoRaNic.queue queueBitLength:max nan
attr autoWarmupFilter false
attr interpolationmode sample-hold
attr recordingmode max
attr source "warmup(atomic(constant0(packetPushEnded) + sum(packetLength(packetPushStarted)) - sum(packetLength(packetPulled)) - sum(packetLength(packetRemoved)) - sum(packetLength(packetDropped))))"
attr title "queue bit length, max"
attr unit b
scalar DroneNetwork.Drone1.LoRaNic.queue queueBitLength:timeavg -nan
attr autoWarmupFilter false
attr interpolationmode sample-hold
attr recordingmode timeavg
attr source "warmup(atomic(constant0(packetPushEnded) + sum(packetLength(packetPushStarted)) - sum(packetLength(packetPulled)) - sum(packetLength(packetRemoved)) - sum(packetLength(packetDropped))))"
attr title "queue bit length, timeavg"
attr unit b
statistic DroneNetwork.Drone1.LoRaNic.queue queueingTime:histogram
field count 0
field mean -nan
field stddev nan
field min nan
field max nan
field sum 0
field sqrsum 0
attr interpolationmode none
attr recordingmode histogram
attr source queueingTime(packetPulled)
attr title "queueing times"
attr unit s
bin	-inf	0
bin	0	0
bin	1	0
scalar DroneNetwork.Drone1.LoRaNic.queue outgoingPackets:count 0
attr recordingmode count
attr source packetPulled
attr title "outgoing packets, count"
attr unit pk
scalar DroneNetwork.Drone1.LoRaNic.queue outgoingPacketLengths:sum 0
attr interpolationmode none
attr recordingmode sum
attr source packetLength(packetPulled)
attr title "outgoing packet lengths, sum"
attr unit b
statistic DroneNetwork.Drone1.LoRaNic.queue outgoingPacketLengths:histogram
field count 0
field mean -nan
field stddev nan
field min nan
field max nan
field sum 0
field sqrsum 0
attr interpolationmode none
attr recordingmode histogram
attr source packetLength(packetPulled)
attr title "outgoing packet lengths"
attr unit b
bin	-inf	0
bin	0	0
bin	1	0
statistic DroneNetwork.Drone1.LoRaNic.queue flowQueueingTime:histogram
field count 0
field mean -nan
field stddev nan
field min nan
field max nan
field sum 0
field sqrsum 0
attr interpolationmode none
attr recordingmode histogram
attr source queueingTime(demuxFlow(packetPulled))
attr title "flow queueing times"
attr unit s
bin	-inf	0
bin	0	0
bin	1	0
scalar DroneNetwork.Drone1.LoRaNic.queue incomingPackets:count 0
attr recordingmode count
attr source packetPushStarted
attr title "incoming packets, count"
attr unit pk
scalar DroneNetwork.Drone1.LoRaNic.queue incomingPacketLengths:sum 0
attr interpolationmode none
attr recordingmode sum
attr source packetLength(packetPushStarted)
attr title "incoming packet lengths, sum"
attr unit b
statistic DroneNetwork.Drone1.LoRaNic.queue incomingPacketLengths:histogram
field count 0
field mean -nan
field stddev nan
field min nan
field max nan
field sum 0
field sqrsum 0
attr interpolationmode none
attr recordingmode histogram
attr source packetLength(packetPushStarted)
attr title "incoming packet lengths"
attr unit b
bin	-inf	0
bin	0	0
bin	1	0
scalar DroneNetwork.Drone1.LoRaNic.queue droppedPacketsQueueOverflow:count 0
attr interpolationmode none
attr recordingmode count
attr source packetDropReasonIsQueueOverflow(packetDropped)
attr title "dropped packets: queue overflow, count"
attr unit pk
scalar DroneNetwork.Drone1.LoRaNic.queue droppedPacketLengthsQueueOverflow:sum 0
attr interpolationmode none
attr recordingmode sum
attr source packetLength(packetDropReasonIsQueueOverflow(packetDropped))
attr title "dropped packet lengths: queue overflow, sum"
attr unit b
par DroneNetwork.Drone1.LoRaNic.mac typename "\"flora.LoRa.LoRaMac\""
par DroneNetwork.Drone1.LoRaNic.mac interfaceTableModule "\"DroneNetwork.Drone1.interfaceTable\""
par DroneNetwork.Drone1.LoRaNic.mac radioModule "\"^.radio\""
par DroneNetwork.Drone1.LoRaNic.mac address "\"0A-AA-00-00-00-01\""
attr mutable ""
par DroneNetwork.Drone1.LoRaNic.mac fcsMode "\"declared\""
attr enum declared,computed
par DroneNetwork.Drone1.LoRaNic.mac useAck true
par DroneNetwork.Drone1.LoRaNic.mac bitrate 250bps
attr unit bps
par DroneNetwork.Drone1.LoRaNic.mac headerLength 17B
attr unit B
par DroneNetwork.Drone1.LoRaNic.mac ackLength 14B
attr unit B
par DroneNetwork.Drone1.LoRaNic.mac sifsTime 1e-05s
attr unit s
par DroneNetwork.Drone1.LoRaNic.mac slotTime 2e-05s
attr unit s
par DroneNetwork.Drone1.LoRaNic.mac difsTime 5e-05s
attr unit s
par DroneNetwork.Drone1.LoRaNic.mac ackTimeout 0.44803s
attr unit s
par DroneNetwork.Drone1.LoRaNic.mac mtu 1500
par DroneNetwork.Drone1.LoRaNic.mac cwMin 31
par DroneNetwork.Drone1.LoRaNic.mac cwMax 1023
par DroneNetwork.Drone1.LoRaNic.mac cwMulticast 31
par DroneNetwork.Drone1.LoRaNic.mac retryLimit 7
scalar DroneNetwork.Drone1.LoRaNic.mac numRetry 0
scalar DroneNetwork.Drone1.LoRaNic.mac numSentWithoutRetry 0
scalar DroneNetwork.Drone1.LoRaNic.mac numGivenUp 0
scalar DroneNetwork.Drone1.LoRaNic.mac numSent 0
scalar DroneNetwork.Drone1.LoRaNic.mac numReceived 0
scalar DroneNetwork.Drone1.LoRaNic.mac numSentBroadcast 0
scalar DroneNetwork.Drone1.LoRaNic.mac numReceivedBroadcast 0
scalar DroneNetwork.Drone1.LoRaNic.mac packetDropIncorrectlyReceived:count 0
attr interpolationmode none
attr recordingmode count
attr source packetDropReasonIsIncorrectlyReceived(packetDropped)
attr title "packet drop: incorrectly received, count"
scalar DroneNetwork.Drone1.LoRaNic.mac packetDropIncorrectlyReceived:sum(packetBytes) 0
attr interpolationmode none
attr recordingmode sum(packetBytes)
attr source packetDropReasonIsIncorrectlyReceived(packetDropped)
attr title "packet drop: incorrectly received, sum(packetBytes)"
scalar DroneNetwork.Drone1.LoRaNic.mac packetDropNotAddressedToUs:count 0
attr interpolationmode none
attr recordingmode count
attr source packetDropReasonIsNotAddressedToUs(packetDropped)
attr title "packet drop: not addressed to us, count"
scalar DroneNetwork.Drone1.LoRaNic.mac packetDropNotAddressedToUs:sum(packetBytes) 0
attr interpolationmode none
attr recordingmode sum(packetBytes)
attr source packetDropReasonIsNotAddressedToUs(packetDropped)
attr title "packet drop: not addressed to us, sum(packetBytes)"
scalar DroneNetwork.Drone1.LoRaNic.mac packetDropQueueOverflow:count 0
attr interpolationmode none
attr recordingmode count
attr source packetDropReasonIsQueueOverflow(packetDropped)
attr title "packet drop: queue overflow, count"
scalar DroneNetwork.Drone1.LoRaNic.mac packetDropQueueOverflow:sum(packetBytes) 0
attr interpolationmode none
attr recordingmode sum(packetBytes)
attr source packetDropReasonIsQueueOverflow(packetDropped)
attr title "packet drop: queue overflow, sum(packetBytes)"
scalar DroneNetwork.Drone1.LoRaNic.mac packetDropRetryLimitReached:count 0
attr interpolationmode none
attr recordingmode count
attr source packetDropReasonIsRetryLimitReached(packetDropped)
attr title "packet drop: retry limit reached, count"
scalar DroneNetwork.Drone1.LoRaNic.mac packetDropRetryLimitReached:sum(packetBytes) 0
attr interpolationmode none
attr recordingmode sum(packetBytes)
attr source packetDropReasonIsRetryLimitReached(packetDropped)
attr title "packet drop: retry limit reached, sum(packetBytes)"
scalar DroneNetwork.Drone1.LoRaNic.mac linkBroken:count 0
attr interpolationmode none
attr recordingmode count
attr source linkBroken
attr title "link break, count"
par DroneNetwork.Drone1.LoRaNic.radio.antenna typename "\"inet.physicallayer.wireless.common.antenna.IsotropicAntenna\""
par DroneNetwork.Drone1.LoRaNic.radio.antenna mobilityModule "\"^.^.^.mobility\""
par DroneNetwork.Drone1.LoRaNic.radio.antenna numAntennas 1
par DroneNetwork.Drone1.LoRaNic.radio.transmitter typename "\"flora.LoRaPhy.LoRaTransmitter\""
par DroneNetwork.Drone1.LoRaNic.radio.transmitter preambleDuration 0.001s
attr unit s
par DroneNetwork.Drone1.LoRaNic.radio.transmitter headerLength 0b
attr unit b
par DroneNetwork.Drone1.LoRaNic.radio.transmitter bitrate 250000bps
attr unit bps
par DroneNetwork.Drone1.LoRaNic.radio.transmitter power 0.025118W
attr unit W
par DroneNetwork.Drone1.LoRaNic.radio.transmitter centerFrequency 8.68e+08Hz
attr unit Hz
par DroneNetwork.Drone1.LoRaNic.radio.transmitter bandwidth 250000Hz
attr unit Hz
par DroneNetwork.Drone1.LoRaNic.radio.transmitter modulation "\"LoRaModulation\""
scalar DroneNetwork.Drone1.LoRaNic.radio.transmitter LoRaTransmissionCreated:count 0
attr recordingmode count
attr source LoRaTransmissionCreated
par DroneNetwork.Drone1.LoRaNic.radio.receiver typename "\"flora.LoRaPhy.LoRaReceiver\""
par DroneNetwork.Drone1.LoRaNic.radio.receiver snirThreshold -8dB
attr unit dB
par DroneNetwork.Drone1.LoRaNic.radio.receiver snirThresholdMode "\"min\""
attr unit min,mean
par DroneNetwork.Drone1.LoRaNic.radio.receiver energyDetection -110dBm
attr unit dBm
par DroneNetwork.Drone1.LoRaNic.radio.receiver sensitivity -137dBm
attr unit dBm
par DroneNetwork.Drone1.LoRaNic.radio.receiver centerFrequency 8.68e+08Hz
attr unit Hz
par DroneNetwork.Drone1.LoRaNic.radio.receiver bandwidth 250000Hz
attr unit Hz
par DroneNetwork.Drone1.LoRaNic.radio.receiver modulation "\"BPSK\""
par DroneNetwork.Drone1.LoRaNic.radio.receiver alohaChannelModel false
scalar DroneNetwork.Drone1.LoRaNic.radio.receiver numCollisions 0
scalar DroneNetwork.Drone1.LoRaNic.radio.receiver rcvBelowSensitivity 0
scalar DroneNetwork.Drone1.LoRaNic.radio.receiver LoRaReceptionCollision:count 0
attr recordingmode count
attr source LoRaReceptionCollision
par DroneNetwork.Drone1.LoRaNic.radio.IdealEpEnergyStorage typename "\"inet.power.storage.IdealEpEnergyStorage\""
scalar DroneNetwork.Drone1.LoRaNic.radio.IdealEpEnergyStorage residualEnergyCapacity:last nan
attr interpolationmode linear
attr recordingmode last
attr source residualEnergyCapacityChanged
attr title "Residual energy capacity, last"
par DroneNetwork.Drone1.LoRaNic.radio typename "\"flora.LoRa.LoRaRadio\""
par DroneNetwork.Drone1.LoRaNic.radio radioMediumModule "\"LoRaMedium\""
par DroneNetwork.Drone1.LoRaNic.radio energySourceModule "\"\""
par DroneNetwork.Drone1.LoRaNic.radio initialRadioMode "\"off\""
attr enum off,sleep,receiver,transmitter,transceiver
par DroneNetwork.Drone1.LoRaNic.radio switchingTimes "\"ms 0 0 0 0 0 0 0 0 0 0 0 0 0 0 0 0 0 0 0 0 0 0 0 0 0\""
par DroneNetwork.Drone1.LoRaNic.radio sendRawBytes false
par DroneNetwork.Drone1.LoRaNic.radio separateTransmissionParts false
par DroneNetwork.Drone1.LoRaNic.radio separateReceptionParts false
par DroneNetwork.Drone1.LoRaNic.radio displayCommunicationRange false
par DroneNetwork.Drone1.LoRaNic.radio displayInterferenceRange false
par DroneNetwork.Drone1.LoRaNic.radio centerFrequency 8.68e+08Hz
attr unit Hz
par DroneNetwork.Drone1.LoRaNic.radio bandwidth 250000Hz
attr unit Hz
par DroneNetwork.Drone1.LoRaNic.radio iAmGateway false
scalar DroneNetwork.Drone1.LoRaNic.radio radioMode:count 3
attr interpolationmode sample-hold
attr recordingmode count
attr source radioModeChanged
attr title "Radio mode, count"
scalar DroneNetwork.Drone1.LoRaNic.radio receptionState:count 0
attr interpolationmode sample-hold
attr recordingmode count
attr source receptionStateChanged
attr title "Radio reception state, count"
scalar DroneNetwork.Drone1.LoRaNic.radio transmissionState:count 0
attr interpolationmode sample-hold
attr recordingmode count
attr source transmissionStateChanged
attr title "Radio transmission state, count"
statistic DroneNetwork.Drone1.LoRaNic.radio minSnir:histogram
field count 0
field mean -nan
field stddev nan
field min nan
field max nan
field sum 0
field sqrsum 0
attr recordingmode histogram
attr source minimumSnir(packetSentToUpper)
attr title "Min SNIR"
bin	-inf	0
bin	0	0
bin	1	0
statistic DroneNetwork.Drone1.LoRaNic.radio packetErrorRate:histogram
field count 0
field mean -nan
field stddev nan
field min nan
field max nan
field sum 0
field sqrsum 0
attr recordingmode histogram
attr source packetErrorRate(packetSentToUpper)
attr title "Packet error rate"
bin	-inf	0
bin	0	0
bin	1	0
statistic DroneNetwork.Drone1.LoRaNic.radio bitErrorRate:histogram
field count 0
field mean -nan
field stddev nan
field min nan
field max nan
field sum 0
field sqrsum 0
attr recordingmode histogram
attr source bitErrorRate(packetSentToUpper)
attr title "Bit error rate"
bin	-inf	0
bin	0	0
bin	1	0
statistic DroneNetwork.Drone1.LoRaNic.radio symbolErrorRate:histogram
field count 0
field mean -nan
field stddev nan
field min nan
field max nan
field sum 0
field sqrsum 0
attr recordingmode histogram
attr source symbolErrorRate(packetSentToUpper)
attr title "Symbol error rate"
bin	-inf	0
bin	0	0
bin	1	0
par DroneNetwork.Drone1.LoRaNic typename "\"flora.LoRa.LoRaNic\""
par DroneNetwork.Drone1.LoRaNic displayStringTextFormat "\"%a (%i)\\n%m\""
par DroneNetwork.Drone1.LoRaNic recordPcap false
par DroneNetwork.Drone1.LoRaNic numPcapRecorders 0
par DroneNetwork.Drone1.LoRaNic interfaceTableModule "\"DroneNetwork.Drone1.interfaceTable\""
par DroneNetwork.Drone1.LoRaNic energySourceModule "\"\""
par DroneNetwork.Drone1.LoRaNic protocol "\"\""
scalar DroneNetwork.Drone1.LoRaNic packetDropInterfaceDown:count 0
attr interpolationmode none
attr recordingmode count
attr source packetDropReasonIsInterfaceDown(packetDropped)
attr title "packet drops: interface down, count"
scalar DroneNetwork.Drone1.LoRaNic packetDropInterfaceDown:sum(packetBytes) 0
attr interpolationmode none
attr recordingmode sum(packetBytes)
attr source packetDropReasonIsInterfaceDown(packetDropped)
attr title "packet drops: interface down, sum(packetBytes)"
scalar DroneNetwork.Drone1.LoRaNic packetDropNoCarrier:count 0
attr interpolationmode none
attr recordingmode count
attr source packetDropReasonIsNoCarrier(packetDropped)
attr title "packet drops: no carrier, count"
scalar DroneNetwork.Drone1.LoRaNic packetDropNoCarrier:sum(packetBytes) 0
attr interpolationmode none
attr recordingmode sum(packetBytes)
attr source packetDropReasonIsNoCarrier(packetDropped)
attr title "packet drops: no carrier, sum(packetBytes)"
par DroneNetwork.Drone1 typename "\"flora.LoraNode.LoRaNode\""
par DroneNetwork.Drone1 numApps 0
par DroneNetwork.Drone1 deploymentType "\"\""
par DroneNetwork.Drone1 maxGatewayDistance 320
par DroneNetwork.Drone1 gatewayX 320
par DroneNetwork.Drone1 gatewayY 320
par DroneNetwork.loRaGW[0].ethg$i[0].channel typename "\"ned.IdealChannel\""
par DroneNetwork.loRaGW[0].eth[0].phys$o.channel typename "\"ned.IdealChannel\""
par DroneNetwork.loRaGW[0].at typename "\"inet.common.MessageDispatcher\""
par DroneNetwork.loRaGW[0].at displayStringTextFormat "\"processed %p pk (%l)\""
par DroneNetwork.loRaGW[0].at forwardServiceRegistration true
par DroneNetwork.loRaGW[0].at forwardProtocolRegistration true
par DroneNetwork.loRaGW[0].tn typename "\"inet.common.MessageDispatcher\""
par DroneNetwork.loRaGW[0].tn displayStringTextFormat "\"processed %p pk (%l)\""
par DroneNetwork.loRaGW[0].tn forwardServiceRegistration true
par DroneNetwork.loRaGW[0].tn forwardProtocolRegistration true
par DroneNetwork.loRaGW[0].nl typename "\"inet.common.MessageDispatcher\""
par DroneNetwork.loRaGW[0].nl displayStringTextFormat "\"processed %p pk (%l)\""
par DroneNetwork.loRaGW[0].nl forwardServiceRegistration true
par DroneNetwork.loRaGW[0].nl forwardProtocolRegistration true
par DroneNetwork.loRaGW[0].cb typename "\"inet.common.MessageDispatcher\""
par DroneNetwork.loRaGW[0].cb displayStringTextFormat "\"processed %p pk (%l)\""
par DroneNetwork.loRaGW[0].cb forwardServiceRegistration true
par DroneNetwork.loRaGW[0].cb forwardProtocolRegistration true
par DroneNetwork.loRaGW[0].bl typename "\"inet.common.MessageDispatcher\""
par DroneNetwork.loRaGW[0].bl displayStringTextFormat "\"processed %p pk (%l)\""
par DroneNetwork.loRaGW[0].bl forwardServiceRegistration true
par DroneNetwork.loRaGW[0].bl forwardProtocolRegistration true
par DroneNetwork.loRaGW[0].li typename "\"inet.common.MessageDispatcher\""
par DroneNetwork.loRaGW[0].li displayStringTextFormat "\"processed %p pk (%l)\""
par DroneNetwork.loRaGW[0].li forwardServiceRegistration true
par DroneNetwork.loRaGW[0].li forwardProtocolRegistration true
par DroneNetwork.loRaGW[0].interfaceTable typename "\"inet.networklayer.common.InterfaceTable\""
par DroneNetwork.loRaGW[0].interfaceTable displayAddresses false
par DroneNetwork.loRaGW[0].mobility typename "\"inet.mobility.static.StationaryMobility\""
par DroneNetwork.loRaGW[0].mobility subjectModule "\"^\""
par DroneNetwork.loRaGW[0].mobility coordinateSystemModule "\"\""
par DroneNetwork.loRaGW[0].mobility displayStringTextFormat "\"p: %p\\nv: %v\""
attr mutable ""
par DroneNetwork.loRaGW[0].mobility updateDisplayString true
par DroneNetwork.loRaGW[0].mobility constraintAreaMinX 0m
attr unit m
par DroneNetwork.loRaGW[0].mobility constraintAreaMinY 0m
attr unit m
par DroneNetwork.loRaGW[0].mobility constraintAreaMinZ 0m
attr unit m
par DroneNetwork.loRaGW[0].mobility constraintAreaMaxX 600m
attr unit m
par DroneNetwork.loRaGW[0].mobility constraintAreaMaxY 600m
attr unit m
par DroneNetwork.loRaGW[0].mobility constraintAreaMaxZ 0m
attr unit m
par DroneNetwork.loRaGW[0].mobility initialX 200m
attr unit m
par DroneNetwork.loRaGW[0].mobility initialY 200m
attr unit m
par DroneNetwork.loRaGW[0].mobility initialZ 0m
attr unit m
par DroneNetwork.loRaGW[0].mobility initialLatitude "nan deg"
attr unit deg
par DroneNetwork.loRaGW[0].mobility initialLongitude "nan deg"
attr unit deg
par DroneNetwork.loRaGW[0].mobility initialAltitude 0m
attr unit m
par DroneNetwork.loRaGW[0].mobility initialHeading 0deg
attr unit deg
par DroneNetwork.loRaGW[0].mobility initialElevation 0deg
attr unit deg
par DroneNetwork.loRaGW[0].mobility initialBank 0deg
attr unit deg
par DroneNetwork.loRaGW[0].mobility initFromDisplayString false
par DroneNetwork.loRaGW[0].mobility updateFromDisplayString true
par DroneNetwork.loRaGW[0].LoRaGWNic.radioIn.channel typename "\"ned.IdealChannel\""
par DroneNetwork.loRaGW[0].LoRaGWNic.mac.upperLayerOut.channel typename "\"ned.IdealChannel\""
par DroneNetwork.loRaGW[0].LoRaGWNic.upperLayerIn.channel typename "\"ned.IdealChannel\""
par DroneNetwork.loRaGW[0].LoRaGWNic.mac typename "\"flora.LoRa.LoRaGWMac\""
par DroneNetwork.loRaGW[0].LoRaGWNic.mac interfaceTableModule "\"DroneNetwork.loRaGW[0].interfaceTable\""
par DroneNetwork.loRaGW[0].LoRaGWNic.mac radioModule "\"^.radio\""
par DroneNetwork.loRaGW[0].LoRaGWNic.mac address "\"0A-AA-00-00-00-02\""
attr mutable ""
par DroneNetwork.loRaGW[0].LoRaGWNic.mac queueModule "\"\""
par DroneNetwork.loRaGW[0].LoRaGWNic.mac maxQueueSize -1
par DroneNetwork.loRaGW[0].LoRaGWNic.mac prioritizeByUP false
par DroneNetwork.loRaGW[0].LoRaGWNic.mac useAck true
par DroneNetwork.loRaGW[0].LoRaGWNic.mac headerLength 8B
attr unit B
par DroneNetwork.loRaGW[0].LoRaGWNic.mac ackLength 8B
attr unit B
par DroneNetwork.loRaGW[0].LoRaGWNic.mac sifsTime 1e-05s
attr unit s
par DroneNetwork.loRaGW[0].LoRaGWNic.mac slotTime 2e-05s
attr unit s
par DroneNetwork.loRaGW[0].LoRaGWNic.mac difsTime 5e-05s
attr unit s
par DroneNetwork.loRaGW[0].LoRaGWNic.mac mtu 1500
par DroneNetwork.loRaGW[0].LoRaGWNic.mac cwMin 31
par DroneNetwork.loRaGW[0].LoRaGWNic.mac cwMax 1023
par DroneNetwork.loRaGW[0].LoRaGWNic.mac cwMulticast 31
par DroneNetwork.loRaGW[0].LoRaGWNic.mac retryLimit 7
scalar DroneNetwork.loRaGW[0].LoRaGWNic.mac GW_forwardedDown 0
scalar DroneNetwork.loRaGW[0].LoRaGWNic.mac GW_droppedDC 0
par DroneNetwork.loRaGW[0].LoRaGWNic.radio.antenna typename "\"inet.physicallayer.wireless.common.antenna.IsotropicAntenna\""
par DroneNetwork.loRaGW[0].LoRaGWNic.radio.antenna mobilityModule "\"^.^.^.mobility\""
par DroneNetwork.loRaGW[0].LoRaGWNic.radio.antenna numAntennas 1
par DroneNetwork.loRaGW[0].LoRaGWNic.radio.transmitter typename "\"flora.LoRaPhy.LoRaTransmitter\""
par DroneNetwork.loRaGW[0].LoRaGWNic.radio.transmitter preambleDuration 0.001s
attr unit s
par DroneNetwork.loRaGW[0].LoRaGWNic.radio.transmitter headerLength 0b
attr unit b
par DroneNetwork.loRaGW[0].LoRaGWNic.radio.transmitter bitrate 250000bps
attr unit bps
par DroneNetwork.loRaGW[0].LoRaGWNic.radio.transmitter power 0.00224W
attr unit W
par DroneNetwork.loRaGW[0].LoRaGWNic.radio.transmitter centerFrequency 2.45e+09Hz
attr unit Hz
par DroneNetwork.loRaGW[0].LoRaGWNic.radio.transmitter bandwidth 250000Hz
attr unit Hz
par DroneNetwork.loRaGW[0].LoRaGWNic.radio.transmitter modulation "\"LoRaModulation\""
scalar DroneNetwork.loRaGW[0].LoRaGWNic.radio.transmitter LoRaTransmissionCreated:count 0
attr recordingmode count
attr source LoRaTransmissionCreated
par DroneNetwork.loRaGW[0].LoRaGWNic.radio.receiver typename "\"flora.LoRaPhy.LoRaReceiver\""
par DroneNetwork.loRaGW[0].LoRaGWNic.radio.receiver snirThreshold -8dB
attr unit dB
par DroneNetwork.loRaGW[0].LoRaGWNic.radio.receiver snirThresholdMode "\"min\""
attr unit min,mean
par DroneNetwork.loRaGW[0].LoRaGWNic.radio.receiver energyDetection -110dBm
attr unit dBm
par DroneNetwork.loRaGW[0].LoRaGWNic.radio.receiver sensitivity -100dBm
attr unit dBm
par DroneNetwork.loRaGW[0].LoRaGWNic.radio.receiver centerFrequency 2.45e+09Hz
attr unit Hz
par DroneNetwork.loRaGW[0].LoRaGWNic.radio.receiver bandwidth 250000Hz
attr unit Hz
par DroneNetwork.loRaGW[0].LoRaGWNic.radio.receiver modulation "\"BPSK\""
par DroneNetwork.loRaGW[0].LoRaGWNic.radio.receiver alohaChannelModel false
scalar DroneNetwork.loRaGW[0].LoRaGWNic.radio.receiver numCollisions 0
scalar DroneNetwork.loRaGW[0].LoRaGWNic.radio.receiver rcvBelowSensitivity 0
scalar DroneNetwork.loRaGW[0].LoRaGWNic.radio.receiver LoRaReceptionCollision:count 0
attr recordingmode count
attr source LoRaReceptionCollision
par DroneNetwork.loRaGW[0].LoRaGWNic.radio typename "\"flora.LoRa.LoRaGWRadio\""
par DroneNetwork.loRaGW[0].LoRaGWNic.radio radioMediumModule "\"LoRaMedium\""
par DroneNetwork.loRaGW[0].LoRaGWNic.radio energySourceModule "\"\""
par DroneNetwork.loRaGW[0].LoRaGWNic.radio initialRadioMode "\"off\""
attr enum off,sleep,receiver,transmitter,transceiver
par DroneNetwork.loRaGW[0].LoRaGWNic.radio switchingTimes "\"ms 0 0 0 0 0 0 0 0 0 0 0 0 0 0 0 0 0 0 0 0 0 0 0 0 0\""
par DroneNetwork.loRaGW[0].LoRaGWNic.radio sendRawBytes false
par DroneNetwork.loRaGW[0].LoRaGWNic.radio separateTransmissionParts false
par DroneNetwork.loRaGW[0].LoRaGWNic.radio separateReceptionParts false
par DroneNetwork.loRaGW[0].LoRaGWNic.radio displayCommunicationRange false
par DroneNetwork.loRaGW[0].LoRaGWNic.radio displayInterferenceRange false
par DroneNetwork.loRaGW[0].LoRaGWNic.radio centerFrequency 2.45e+09Hz
attr unit Hz
par DroneNetwork.loRaGW[0].LoRaGWNic.radio bandwidth 250000Hz
attr unit Hz
par DroneNetwork.loRaGW[0].LoRaGWNic.radio iAmGateway true
scalar DroneNetwork.loRaGW[0].LoRaGWNic.radio "DER - Data Extraction Rate" -nan
scalar DroneNetwork.loRaGW[0].LoRaGWNic.radio LoRaGWRadioReceptionFinishedCorrect:count 0
attr recordingmode count
attr source LoRaGWRadioReceptionFinishedCorrect
scalar DroneNetwork.loRaGW[0].LoRaGWNic.radio LoRaGWRadioReceptionStarted:count 0
attr recordingmode count
attr source LoRaGWRadioReceptionStarted
scalar DroneNetwork.loRaGW[0].LoRaGWNic.radio radioMode:count 3
attr interpolationmode sample-hold
attr recordingmode count
attr source radioModeChanged
attr title "Radio mode, count"
scalar DroneNetwork.loRaGW[0].LoRaGWNic.radio receptionState:count 1
attr interpolationmode sample-hold
attr recordingmode count
attr source receptionStateChanged
attr title "Radio reception state, count"
scalar DroneNetwork.loRaGW[0].LoRaGWNic.radio transmissionState:count 1
attr interpolationmode sample-hold
attr recordingmode count
attr source transmissionStateChanged
attr title "Radio transmission state, count"
statistic DroneNetwork.loRaGW[0].LoRaGWNic.radio minSnir:histogram
field count 0
field mean -nan
field stddev nan
field min nan
field max nan
field sum 0
field sqrsum 0
attr recordingmode histogram
attr source minimumSnir(packetSentToUpper)
attr title "Min SNIR"
bin	-inf	0
bin	0	0
bin	1	0
statistic DroneNetwork.loRaGW[0].LoRaGWNic.radio packetErrorRate:histogram
field count 0
field mean -nan
field stddev nan
field min nan
field max nan
field sum 0
field sqrsum 0
attr recordingmode histogram
attr source packetErrorRate(packetSentToUpper)
attr title "Packet error rate"
bin	-inf	0
bin	0	0
bin	1	0
statistic DroneNetwork.loRaGW[0].LoRaGWNic.radio bitErrorRate:histogram
field count 0
field mean -nan
field stddev nan
field min nan
field max nan
field sum 0
field sqrsum 0
attr recordingmode histogram
attr source bitErrorRate(packetSentToUpper)
attr title "Bit error rate"
bin	-inf	0
bin	0	0
bin	1	0
statistic DroneNetwork.loRaGW[0].LoRaGWNic.radio symbolErrorRate:histogram
field count 0
field mean -nan
field stddev nan
field min nan
field max nan
field sum 0
field sqrsum 0
attr recordingmode histogram
attr source symbolErrorRate(packetSentToUpper)
attr title "Symbol error rate"
bin	-inf	0
bin	0	0
bin	1	0
par DroneNetwork.loRaGW[0].LoRaGWNic typename "\"flora.LoRa.LoRaGWNic\""
par DroneNetwork.loRaGW[0].LoRaGWNic displayStringTextFormat "\"%a (%i)\\n%m\""
par DroneNetwork.loRaGW[0].LoRaGWNic recordPcap false
par DroneNetwork.loRaGW[0].LoRaGWNic numPcapRecorders 0
par DroneNetwork.loRaGW[0].LoRaGWNic interfaceTableModule "\"DroneNetwork.loRaGW[0].interfaceTable\""
par DroneNetwork.loRaGW[0].LoRaGWNic energySourceModule "\"\""
par DroneNetwork.loRaGW[0].LoRaGWNic protocol "\"\""
scalar DroneNetwork.loRaGW[0].LoRaGWNic packetDropInterfaceDown:count 0
attr interpolationmode none
attr recordingmode count
attr source packetDropReasonIsInterfaceDown(packetDropped)
attr title "packet drops: interface down, count"
scalar DroneNetwork.loRaGW[0].LoRaGWNic packetDropInterfaceDown:sum(packetBytes) 0
attr interpolationmode none
attr recordingmode sum(packetBytes)
attr source packetDropReasonIsInterfaceDown(packetDropped)
attr title "packet drops: interface down, sum(packetBytes)"
scalar DroneNetwork.loRaGW[0].LoRaGWNic packetDropNoCarrier:count 0
attr interpolationmode none
attr recordingmode count
attr source packetDropReasonIsNoCarrier(packetDropped)
attr title "packet drops: no carrier, count"
scalar DroneNetwork.loRaGW[0].LoRaGWNic packetDropNoCarrier:sum(packetBytes) 0
attr interpolationmode none
attr recordingmode sum(packetBytes)
attr source packetDropReasonIsNoCarrier(packetDropped)
attr title "packet drops: no carrier, sum(packetBytes)"
par DroneNetwork.loRaGW[0].packetForwarder typename "\"flora.LoRa.PacketForwarder\""
par DroneNetwork.loRaGW[0].packetForwarder localPort -1
par DroneNetwork.loRaGW[0].packetForwarder destAddresses "\"\""
par DroneNetwork.loRaGW[0].packetForwarder localAddress "\"\""
par DroneNetwork.loRaGW[0].packetForwarder destPort 0
scalar DroneNetwork.loRaGW[0].packetForwarder LoRa_GW_DER -nan
scalar DroneNetwork.loRaGW[0].packetForwarder LoRa_GWPacketReceived:count 0
attr recordingmode count
attr source LoRa_GWPacketReceived
par DroneNetwork.loRaGW[0].eth[0].mac.phys$o.channel typename "\"ned.IdealChannel\""
par DroneNetwork.loRaGW[0].eth[0].phys$i.channel typename "\"ned.IdealChannel\""
par DroneNetwork.loRaGW[0].eth[0].upperLayerIn.channel typename "\"ned.IdealChannel\""
par DroneNetwork.loRaGW[0].eth[0].mac.upperLayerOut.channel typename "\"ned.IdealChannel\""
par DroneNetwork.loRaGW[0].eth[0].queue typename "\"inet.linklayer.ethernet.common.EthernetQueue\""
par DroneNetwork.loRaGW[0].eth[0].queue displayStringTextFormat "\"contains %p pk (%l) pushed %u\\npulled %o removed %r dropped %d\""
par DroneNetwork.loRaGW[0].eth[0].queue packetCapacity 1000
par DroneNetwork.loRaGW[0].eth[0].queue dataCapacity -1b
attr unit b
par DroneNetwork.loRaGW[0].eth[0].queue dropperClass "\"inet::queueing::PacketAtCollectionEndDropper\""
par DroneNetwork.loRaGW[0].eth[0].queue comparatorClass "\"inet::EthernetFrameTypeComparator\""
par DroneNetwork.loRaGW[0].eth[0].queue bufferModule "\"\""
scalar DroneNetwork.loRaGW[0].eth[0].queue queueLength:last nan
attr autoWarmupFilter false
attr interpolationmode sample-hold
attr recordingmode last
attr source "warmup(atomic(constant0(packetPushEnded) + count(packetPushStarted) - count(packetPulled) - count(packetRemoved) - count(packetDropped)))"
attr title "queue length, last"
attr unit pk
scalar DroneNetwork.loRaGW[0].eth[0].queue queueLength:max nan
attr autoWarmupFilter false
attr interpolationmode sample-hold
attr recordingmode max
attr source "warmup(atomic(constant0(packetPushEnded) + count(packetPushStarted) - count(packetPulled) - count(packetRemoved) - count(packetDropped)))"
attr title "queue length, max"
attr unit pk
scalar DroneNetwork.loRaGW[0].eth[0].queue queueLength:timeavg -nan
attr autoWarmupFilter false
attr interpolationmode sample-hold
attr recordingmode timeavg
attr source "warmup(atomic(constant0(packetPushEnded) + count(packetPushStarted) - count(packetPulled) - count(packetRemoved) - count(packetDropped)))"
attr title "queue length, timeavg"
attr unit pk
scalar DroneNetwork.loRaGW[0].eth[0].queue queueBitLength:last nan
attr autoWarmupFilter false
attr interpolationmode sample-hold
attr recordingmode last
attr source "warmup(atomic(constant0(packetPushEnded) + sum(packetLength(packetPushStarted)) - sum(packetLength(packetPulled)) - sum(packetLength(packetRemoved)) - sum(packetLength(packetDropped))))"
attr title "queue bit length, last"
attr unit b
scalar DroneNetwork.loRaGW[0].eth[0].queue queueBitLength:max nan
attr autoWarmupFilter false
attr interpolationmode sample-hold
attr recordingmode max
attr source "warmup(atomic(constant0(packetPushEnded) + sum(packetLength(packetPushStarted)) - sum(packetLength(packetPulled)) - sum(packetLength(packetRemoved)) - sum(packetLength(packetDropped))))"
attr title "queue bit length, max"
attr unit b
scalar DroneNetwork.loRaGW[0].eth[0].queue queueBitLength:timeavg -nan
attr autoWarmupFilter false
attr interpolationmode sample-hold
attr recordingmode timeavg
attr source "warmup(atomic(constant0(packetPushEnded) + sum(packetLength(packetPushStarted)) - sum(packetLength(packetPulled)) - sum(packetLength(packetRemoved)) - sum(packetLength(packetDropped))))"
attr title "queue bit length, timeavg"
attr unit b
statistic DroneNetwork.loRaGW[0].eth[0].queue queueingTime:histogram
field count 0
field mean -nan
field stddev nan
field min nan
field max nan
field sum 0
field sqrsum 0
attr interpolationmode none
attr recordingmode histogram
attr source queueingTime(packetPulled)
attr title "queueing times"
attr unit s
bin	-inf	0
bin	0	0
bin	1	0
scalar DroneNetwork.loRaGW[0].eth[0].queue outgoingPackets:count 0
attr recordingmode count
attr source packetPulled
attr title "outgoing packets, count"
attr unit pk
scalar DroneNetwork.loRaGW[0].eth[0].queue outgoingPacketLengths:sum 0
attr interpolationmode none
attr recordingmode sum
attr source packetLength(packetPulled)
attr title "outgoing packet lengths, sum"
attr unit b
statistic DroneNetwork.loRaGW[0].eth[0].queue outgoingPacketLengths:histogram
field count 0
field mean -nan
field stddev nan
field min nan
field max nan
field sum 0
field sqrsum 0
attr interpolationmode none
attr recordingmode histogram
attr source packetLength(packetPulled)
attr title "outgoing packet lengths"
attr unit b
bin	-inf	0
bin	0	0
bin	1	0
statistic DroneNetwork.loRaGW[0].eth[0].queue flowQueueingTime:histogram
field count 0
field mean -nan
field stddev nan
field min nan
field max nan
field sum 0
field sqrsum 0
attr interpolationmode none
attr recordingmode histogram
attr source queueingTime(demuxFlow(packetPulled))
attr title "flow queueing times"
attr unit s
bin	-inf	0
bin	0	0
bin	1	0
scalar DroneNetwork.loRaGW[0].eth[0].queue incomingPackets:count 0
attr recordingmode count
attr source packetPushStarted
attr title "incoming packets, count"
attr unit pk
scalar DroneNetwork.loRaGW[0].eth[0].queue incomingPacketLengths:sum 0
attr interpolationmode none
attr recordingmode sum
attr source packetLength(packetPushStarted)
attr title "incoming packet lengths, sum"
attr unit b
statistic DroneNetwork.loRaGW[0].eth[0].queue incomingPacketLengths:histogram
field count 0
field mean -nan
field stddev nan
field min nan
field max nan
field sum 0
field sqrsum 0
attr interpolationmode none
attr recordingmode histogram
attr source packetLength(packetPushStarted)
attr title "incoming packet lengths"
attr unit b
bin	-inf	0
bin	0	0
bin	1	0
scalar DroneNetwork.loRaGW[0].eth[0].queue droppedPacketsQueueOverflow:count 0
attr interpolationmode none
attr recordingmode count
attr source packetDropReasonIsQueueOverflow(packetDropped)
attr title "dropped packets: queue overflow, count"
attr unit pk
scalar DroneNetwork.loRaGW[0].eth[0].queue droppedPacketLengthsQueueOverflow:sum 0
attr interpolationmode none
attr recordingmode sum
attr source packetLength(packetDropReasonIsQueueOverflow(packetDropped))
attr title "dropped packet lengths: queue overflow, sum"
attr unit b
par DroneNetwork.loRaGW[0].eth[0].mac typename "\"inet.linklayer.ethernet.basic.EthernetMac\""
par DroneNetwork.loRaGW[0].eth[0].mac interfaceTableModule "\"DroneNetwork.loRaGW[0].interfaceTable\""
par DroneNetwork.loRaGW[0].eth[0].mac displayStringTextFormat "\"rate: %b\\nsent: %s, rcvd: %r\\nqueue: %q, drop: %d\""
par DroneNetwork.loRaGW[0].eth[0].mac sendRawBytes false
par DroneNetwork.loRaGW[0].eth[0].mac promiscuous false
par DroneNetwork.loRaGW[0].eth[0].mac duplexMode true
par DroneNetwork.loRaGW[0].eth[0].mac mtu 1500B
attr unit B
par DroneNetwork.loRaGW[0].eth[0].mac fcsMode "\"declared\""
attr enum declared,computed
par DroneNetwork.loRaGW[0].eth[0].mac stopOperationExtraTime -1s
attr unit s
par DroneNetwork.loRaGW[0].eth[0].mac stopOperationTimeout 2s
attr unit s
scalar DroneNetwork.loRaGW[0].eth[0].mac "simulated time" 1449.0192674204
scalar DroneNetwork.loRaGW[0].eth[0].mac full-duplex 1
scalar DroneNetwork.loRaGW[0].eth[0].mac "frames/sec sent" 0
scalar DroneNetwork.loRaGW[0].eth[0].mac "frames/sec rcvd" 0
scalar DroneNetwork.loRaGW[0].eth[0].mac "bits/sec sent" 0
scalar DroneNetwork.loRaGW[0].eth[0].mac "bits/sec rcvd" 0
scalar DroneNetwork.loRaGW[0].eth[0].mac "rx channel idle (%)" 100
scalar DroneNetwork.loRaGW[0].eth[0].mac "rx channel utilization (%)" 0
scalar DroneNetwork.loRaGW[0].eth[0].mac rxPausePkUnits:count 0
attr interpolationmode none
attr recordingmode count
attr title "pause units received, count"
scalar DroneNetwork.loRaGW[0].eth[0].mac rxPausePkUnits:sum 0
attr interpolationmode none
attr recordingmode sum
attr title "pause units received, sum"
scalar DroneNetwork.loRaGW[0].eth[0].mac txPausePkUnits:count 0
attr interpolationmode none
attr recordingmode count
attr title "pause units sent, count"
scalar DroneNetwork.loRaGW[0].eth[0].mac txPausePkUnits:sum 0
attr interpolationmode none
attr recordingmode sum
attr title "pause units sent, sum"
scalar DroneNetwork.loRaGW[0].eth[0].mac rxPkOk:count 0
attr interpolationmode none
attr recordingmode count
attr source rxPkOk
attr title "packets received OK, count"
scalar DroneNetwork.loRaGW[0].eth[0].mac rxPkOk:sum(packetBytes) 0
attr interpolationmode none
attr recordingmode sum(packetBytes)
attr source rxPkOk
attr title "packets received OK, sum(packetBytes)"
scalar DroneNetwork.loRaGW[0].eth[0].mac txPk:count 0
attr interpolationmode none
attr recordingmode count
attr source packetSentToLower
attr title "packets transmitted, count"
scalar DroneNetwork.loRaGW[0].eth[0].mac txPk:sum(packetBytes) 0
attr interpolationmode none
attr recordingmode sum(packetBytes)
attr source packetSentToLower
attr title "packets transmitted, sum(packetBytes)"
scalar DroneNetwork.loRaGW[0].eth[0].mac packetReceivedFromUpper:count 0
attr interpolationmode none
attr recordingmode count
attr source packetReceivedFromUpper
attr title "packet bytes from higher layer, count"
scalar DroneNetwork.loRaGW[0].eth[0].mac packetReceivedFromUpper:sum(packetBytes) 0
attr interpolationmode none
attr recordingmode sum(packetBytes)
attr source packetReceivedFromUpper
attr title "packet bytes from higher layer, sum(packetBytes)"
scalar DroneNetwork.loRaGW[0].eth[0].mac passedUpPk:count 0
attr interpolationmode none
attr recordingmode count
attr source packetSentToUpper
attr title "packets passed to higher layer, count"
scalar DroneNetwork.loRaGW[0].eth[0].mac passedUpPk:sum(packetBytes) 0
attr interpolationmode none
attr recordingmode sum(packetBytes)
attr source packetSentToUpper
attr title "packets passed to higher layer, sum(packetBytes)"
scalar DroneNetwork.loRaGW[0].eth[0].mac packetDropIncorrectlyReceived:count 0
attr interpolationmode none
attr recordingmode count
attr source packetDropReasonIsIncorrectlyReceived(packetDropped)
attr title "packet drop: incorrectly received, count"
scalar DroneNetwork.loRaGW[0].eth[0].mac packetDropIncorrectlyReceived:sum(packetBytes) 0
attr interpolationmode none
attr recordingmode sum(packetBytes)
attr source packetDropReasonIsIncorrectlyReceived(packetDropped)
attr title "packet drop: incorrectly received, sum(packetBytes)"
scalar DroneNetwork.loRaGW[0].eth[0].mac packetDropInterfaceDown:count 0
attr interpolationmode none
attr recordingmode count
attr source packetDropReasonIsInterfaceDown(packetDropped)
attr title "packet drop: interface down, count"
scalar DroneNetwork.loRaGW[0].eth[0].mac packetDropInterfaceDown:sum(packetBytes) 0
attr interpolationmode none
attr recordingmode sum(packetBytes)
attr source packetDropReasonIsInterfaceDown(packetDropped)
attr title "packet drop: interface down, sum(packetBytes)"
scalar DroneNetwork.loRaGW[0].eth[0].mac packetDropNotAddressedToUs:count 0
attr interpolationmode none
attr recordingmode count
attr source packetDropReasonIsNotAddressedToUs(packetDropped)
attr title "packet drop: not addressed to us, count"
scalar DroneNetwork.loRaGW[0].eth[0].mac packetDropNotAddressedToUs:sum(packetBytes) 0
attr interpolationmode none
attr recordingmode sum(packetBytes)
attr source packetDropReasonIsNotAddressedToUs(packetDropped)
attr title "packet drop: not addressed to us, sum(packetBytes)"
par DroneNetwork.loRaGW[0].eth[0] typename "\"inet.linklayer.ethernet.EthernetInterface\""
par DroneNetwork.loRaGW[0].eth[0] displayStringTextFormat "\"%a (%i)\\n%m\""
par DroneNetwork.loRaGW[0].eth[0] recordPcap false
par DroneNetwork.loRaGW[0].eth[0] numPcapRecorders 0
par DroneNetwork.loRaGW[0].eth[0] interfaceTableModule "\"DroneNetwork.loRaGW[0].interfaceTable\""
par DroneNetwork.loRaGW[0].eth[0] protocol "\"ethernetmac\""
par DroneNetwork.loRaGW[0].eth[0] address "\"0A-AA-00-00-00-03\""
attr mutable ""
par DroneNetwork.loRaGW[0].eth[0] duplexMode true
par DroneNetwork.loRaGW[0].eth[0] csmacdSupport false
par DroneNetwork.loRaGW[0].eth[0] bitrate 0bps
attr unit bps
par DroneNetwork.loRaGW[0].eth[0] fcsMode "\"declared\""
attr enum declared,computed
scalar DroneNetwork.loRaGW[0].eth[0] packetDropInterfaceDown:count 0
attr interpolationmode none
attr recordingmode count
attr source packetDropReasonIsInterfaceDown(packetDropped)
attr title "packet drops: interface down, count"
scalar DroneNetwork.loRaGW[0].eth[0] packetDropInterfaceDown:sum(packetBytes) 0
attr interpolationmode none
attr recordingmode sum(packetBytes)
attr source packetDropReasonIsInterfaceDown(packetDropped)
attr title "packet drops: interface down, sum(packetBytes)"
scalar DroneNetwork.loRaGW[0].eth[0] packetDropNoCarrier:count 0
attr interpolationmode none
attr recordingmode count
attr source packetDropReasonIsNoCarrier(packetDropped)
attr title "packet drops: no carrier, count"
scalar DroneNetwork.loRaGW[0].eth[0] packetDropNoCarrier:sum(packetBytes) 0
attr interpolationmode none
attr recordingmode sum(packetBytes)
attr source packetDropReasonIsNoCarrier(packetDropped)
attr title "packet drops: no carrier, sum(packetBytes)"
par DroneNetwork.loRaGW[0].udp typename "\"inet.transportlayer.udp.Udp\""
par DroneNetwork.loRaGW[0].udp interfaceTableModule "\"DroneNetwork.loRaGW[0].interfaceTable\""
par DroneNetwork.loRaGW[0].udp icmpModule "\"^.ipv4.icmp\""
par DroneNetwork.loRaGW[0].udp icmpv6Module "\"^.ipv6.icmpv6\""
par DroneNetwork.loRaGW[0].udp crcMode "\"declared\""
attr enum disabled,declared,computed
par DroneNetwork.loRaGW[0].udp defaultMulticastLoop true
scalar DroneNetwork.loRaGW[0].udp packetReceived:count 0
attr interpolationmode none
attr recordingmode count
attr source packetReceived
attr title "packets received, count"
scalar DroneNetwork.loRaGW[0].udp packetReceived:sum(packetBytes) 0
attr interpolationmode none
attr recordingmode sum(packetBytes)
attr source packetReceived
attr title "packets received, sum(packetBytes)"
scalar DroneNetwork.loRaGW[0].udp packetSent:count 0
attr interpolationmode none
attr recordingmode count
attr source packetSent
attr title "packets sent, count"
scalar DroneNetwork.loRaGW[0].udp packetSent:sum(packetBytes) 0
attr interpolationmode none
attr recordingmode sum(packetBytes)
attr source packetSent
attr title "packets sent, sum(packetBytes)"
scalar DroneNetwork.loRaGW[0].udp passedUpPk:count 0
attr interpolationmode none
attr recordingmode count
attr source packetSentToUpper
attr title "packets passed up, count"
scalar DroneNetwork.loRaGW[0].udp droppedPkWrongPort:count 0
attr interpolationmode none
attr recordingmode count
attr source packetDropReasonIsNoPortFound(packetDropped)
attr title "packets dropped (wrong port), count"
scalar DroneNetwork.loRaGW[0].udp droppedPkBadChecksum:count 0
attr interpolationmode none
attr recordingmode count
attr source packetDropReasonIsIncorrectlyReceived(packetDropped)
attr title "packets dropped (checksum error), count"
par DroneNetwork.loRaGW[0].ipv4.transportIn.channel typename "\"ned.IdealChannel\""
par DroneNetwork.loRaGW[0].ipv4.up.out[0].channel typename "\"ned.IdealChannel\""
par DroneNetwork.loRaGW[0].ipv4.lp.out[2].channel typename "\"ned.IdealChannel\""
par DroneNetwork.loRaGW[0].ipv4.ifIn.channel typename "\"ned.IdealChannel\""
par DroneNetwork.loRaGW[0].ipv4.configurator typename "\"inet.networklayer.configurator.ipv4.Ipv4NodeConfigurator\""
par DroneNetwork.loRaGW[0].ipv4.configurator interfaceTableModule "\"DroneNetwork.loRaGW[0].interfaceTable\""
par DroneNetwork.loRaGW[0].ipv4.configurator routingTableModule "\"DroneNetwork.loRaGW[0].ipv4.routingTable\""
par DroneNetwork.loRaGW[0].ipv4.configurator networkConfiguratorModule "\"configurator\""
par DroneNetwork.loRaGW[0].ipv4.configurator configureRoutingTable true
par DroneNetwork.loRaGW[0].ipv4.routingTable typename "\"inet.networklayer.ipv4.Ipv4RoutingTable\""
par DroneNetwork.loRaGW[0].ipv4.routingTable interfaceTableModule "\"DroneNetwork.loRaGW[0].interfaceTable\""
par DroneNetwork.loRaGW[0].ipv4.routingTable routerId "\"auto\""
par DroneNetwork.loRaGW[0].ipv4.routingTable netmaskRoutes "\"*\""
par DroneNetwork.loRaGW[0].ipv4.routingTable forwarding false
par DroneNetwork.loRaGW[0].ipv4.routingTable multicastForwarding false
par DroneNetwork.loRaGW[0].ipv4.routingTable useAdminDist false
par DroneNetwork.loRaGW[0].ipv4.routingTable routingFile "\"\""
par DroneNetwork.loRaGW[0].ipv4.natTable typename "\"inet.networklayer.ipv4.Ipv4NatTable\""
par DroneNetwork.loRaGW[0].ipv4.natTable networkProtocolModule "\"^.ip\""
par DroneNetwork.loRaGW[0].ipv4.natTable config "<config/> at content:1"
par DroneNetwork.loRaGW[0].ipv4.up typename "\"inet.common.MessageDispatcher\""
par DroneNetwork.loRaGW[0].ipv4.up displayStringTextFormat "\"processed %p pk (%l)\""
par DroneNetwork.loRaGW[0].ipv4.up forwardServiceRegistration true
par DroneNetwork.loRaGW[0].ipv4.up forwardProtocolRegistration true
par DroneNetwork.loRaGW[0].ipv4.igmp typename "\"inet.networklayer.ipv4.Igmpv2\""
par DroneNetwork.loRaGW[0].ipv4.igmp interfaceTableModule "\"DroneNetwork.loRaGW[0].interfaceTable\""
par DroneNetwork.loRaGW[0].ipv4.igmp routingTableModule "\"DroneNetwork.loRaGW[0].ipv4.routingTable\""
par DroneNetwork.loRaGW[0].ipv4.igmp crcMode "\"declared\""
attr enum declared,computed
par DroneNetwork.loRaGW[0].ipv4.igmp enabled true
par DroneNetwork.loRaGW[0].ipv4.igmp robustnessVariable 2
par DroneNetwork.loRaGW[0].ipv4.igmp queryInterval 125s
attr unit s
par DroneNetwork.loRaGW[0].ipv4.igmp queryResponseInterval 10s
attr unit s
par DroneNetwork.loRaGW[0].ipv4.igmp groupMembershipInterval 260s
attr unit s
par DroneNetwork.loRaGW[0].ipv4.igmp otherQuerierPresentInterval 255s
attr unit s
par DroneNetwork.loRaGW[0].ipv4.igmp startupQueryInterval 31.25s
attr unit s
par DroneNetwork.loRaGW[0].ipv4.igmp startupQueryCount 2
par DroneNetwork.loRaGW[0].ipv4.igmp lastMemberQueryInterval 1s
attr unit s
par DroneNetwork.loRaGW[0].ipv4.igmp lastMemberQueryCount 2
par DroneNetwork.loRaGW[0].ipv4.igmp unsolicitedReportInterval 10s
attr unit s
par DroneNetwork.loRaGW[0].ipv4.icmp typename "\"inet.networklayer.ipv4.Icmp\""
par DroneNetwork.loRaGW[0].ipv4.icmp interfaceTableModule "\"DroneNetwork.loRaGW[0].interfaceTable\""
par DroneNetwork.loRaGW[0].ipv4.icmp routingTableModule "\"DroneNetwork.loRaGW[0].ipv4.routingTable\""
par DroneNetwork.loRaGW[0].ipv4.icmp crcMode "\"declared\""
attr enum declared,computed
attr mutable ""
par DroneNetwork.loRaGW[0].ipv4.icmp quoteLength 8B
attr mutable ""
attr unit B
par DroneNetwork.loRaGW[0].ipv4.mp typename "\"inet.common.MessageDispatcher\""
par DroneNetwork.loRaGW[0].ipv4.mp displayStringTextFormat "\"processed %p pk (%l)\""
par DroneNetwork.loRaGW[0].ipv4.mp forwardServiceRegistration true
par DroneNetwork.loRaGW[0].ipv4.mp forwardProtocolRegistration true
par DroneNetwork.loRaGW[0].ipv4.ip typename "\"inet.networklayer.ipv4.Ipv4\""
par DroneNetwork.loRaGW[0].ipv4.ip interfaceTableModule "\"DroneNetwork.loRaGW[0].interfaceTable\""
par DroneNetwork.loRaGW[0].ipv4.ip routingTableModule "\"DroneNetwork.loRaGW[0].ipv4.routingTable\""
par DroneNetwork.loRaGW[0].ipv4.ip arpModule "\"DroneNetwork.loRaGW[0].ipv4.arp\""
par DroneNetwork.loRaGW[0].ipv4.ip icmpModule "\"DroneNetwork.loRaGW[0].ipv4.icmp\""
par DroneNetwork.loRaGW[0].ipv4.ip crcMode "\"declared\""
attr enum declared,computed
par DroneNetwork.loRaGW[0].ipv4.ip timeToLive 32
par DroneNetwork.loRaGW[0].ipv4.ip multicastTimeToLive 32
par DroneNetwork.loRaGW[0].ipv4.ip fragmentTimeout 60s
attr unit s
par DroneNetwork.loRaGW[0].ipv4.ip limitedBroadcast false
par DroneNetwork.loRaGW[0].ipv4.ip directBroadcastInterfaces "\"\""
scalar DroneNetwork.loRaGW[0].ipv4.ip packetDropAddressResolutionFailed:count 0
attr interpolationmode none
attr recordingmode count
attr source packetDropReasonIsAddressResolutionFailed(packetDropped)
attr title "packet drop: address resolution failed, count"
scalar DroneNetwork.loRaGW[0].ipv4.ip packetDropAddressResolutionFailed:sum(packetBytes) 0
attr interpolationmode none
attr recordingmode sum(packetBytes)
attr source packetDropReasonIsAddressResolutionFailed(packetDropped)
attr title "packet drop: address resolution failed, sum(packetBytes)"
scalar DroneNetwork.loRaGW[0].ipv4.ip packetDropHopLimitReached:count 0
attr interpolationmode none
attr recordingmode count
attr source packetDropReasonIsHopLimitReached(packetDropped)
attr title "packet drop: hop limit reached, count"
scalar DroneNetwork.loRaGW[0].ipv4.ip packetDropHopLimitReached:sum(packetBytes) 0
attr interpolationmode none
attr recordingmode sum(packetBytes)
attr source packetDropReasonIsHopLimitReached(packetDropped)
attr title "packet drop: hop limit reached, sum(packetBytes)"
scalar DroneNetwork.loRaGW[0].ipv4.ip packetDropForwardingDisabled:count 0
attr interpolationmode none
attr recordingmode count
attr source packetDropReasonIsForwardingDisabled(packetDropped)
attr title "packet drop: forwarding disabled, count"
scalar DroneNetwork.loRaGW[0].ipv4.ip packetDropForwardingDisabled:sum(packetBytes) 0
attr interpolationmode none
attr recordingmode sum(packetBytes)
attr source packetDropReasonIsForwardingDisabled(packetDropped)
attr title "packet drop: forwarding disabled, sum(packetBytes)"
scalar DroneNetwork.loRaGW[0].ipv4.ip packetDropNoInterfaceFound:count 0
attr interpolationmode none
attr recordingmode count
attr source packetDropReasonIsNoInterfaceFound(packetDropped)
attr title "packet drop: no interface found, count"
scalar DroneNetwork.loRaGW[0].ipv4.ip packetDropNoInterfaceFound:sum(packetBytes) 0
attr interpolationmode none
attr recordingmode sum(packetBytes)
attr source packetDropReasonIsNoInterfaceFound(packetDropped)
attr title "packet drop: no interface found, sum(packetBytes)"
scalar DroneNetwork.loRaGW[0].ipv4.ip packetDropNoRouteFound:count 0
attr interpolationmode none
attr recordingmode count
attr source packetDropReasonIsNoRouteFound(packetDropped)
attr title "packet drop: no route found, count"
scalar DroneNetwork.loRaGW[0].ipv4.ip packetDropNoRouteFound:sum(packetBytes) 0
attr interpolationmode none
attr recordingmode sum(packetBytes)
attr source packetDropReasonIsNoRouteFound(packetDropped)
attr title "packet drop: no route found, sum(packetBytes)"
scalar DroneNetwork.loRaGW[0].ipv4.ip packetDropUndefined:count 0
attr interpolationmode none
attr recordingmode count
attr source packetDropReasonIsUndefined(packetDropped)
attr title "packet drop: undefined, count"
scalar DroneNetwork.loRaGW[0].ipv4.ip packetDropUndefined:sum(packetBytes) 0
attr interpolationmode none
attr recordingmode sum(packetBytes)
attr source packetDropReasonIsUndefined(packetDropped)
attr title "packet drop: undefined, sum(packetBytes)"
par DroneNetwork.loRaGW[0].ipv4.arp typename "\"inet.networklayer.arp.ipv4.Arp\""
par DroneNetwork.loRaGW[0].ipv4.arp interfaceTableModule "\"DroneNetwork.loRaGW[0].interfaceTable\""
par DroneNetwork.loRaGW[0].ipv4.arp routingTableModule "\"DroneNetwork.loRaGW[0].ipv4.routingTable\""
par DroneNetwork.loRaGW[0].ipv4.arp retryTimeout 1s
attr unit s
par DroneNetwork.loRaGW[0].ipv4.arp retryCount 3
par DroneNetwork.loRaGW[0].ipv4.arp cacheTimeout 120s
attr unit s
par DroneNetwork.loRaGW[0].ipv4.arp proxyArpInterfaces "\"*\""
scalar DroneNetwork.loRaGW[0].ipv4.arp arpResolutionFailed:count 0
attr recordingmode count
attr title "ARP failed resolutions, count"
scalar DroneNetwork.loRaGW[0].ipv4.arp arpResolutionCompleted:count 0
attr recordingmode count
attr title "ARP completed resolutions, count"
scalar DroneNetwork.loRaGW[0].ipv4.arp arpResolutionInitiated:count 0
attr recordingmode count
attr title "ARP initiated resolutions, count"
scalar DroneNetwork.loRaGW[0].ipv4.arp arpReplySent:count 0
attr recordingmode count
attr source arpReplySent
attr title "ARP replies sent, count"
scalar DroneNetwork.loRaGW[0].ipv4.arp arpReplySent:sum(packetBytes) 0
attr recordingmode sum(packetBytes)
attr source arpReplySent
attr title "ARP replies sent, sum(packetBytes)"
scalar DroneNetwork.loRaGW[0].ipv4.arp arpRequestSent:count 0
attr recordingmode count
attr source arpRequestSent
attr title "ARP request sent, count"
scalar DroneNetwork.loRaGW[0].ipv4.arp arpRequestSent:sum(packetBytes) 0
attr recordingmode sum(packetBytes)
attr source arpRequestSent
attr title "ARP request sent, sum(packetBytes)"
par DroneNetwork.loRaGW[0].ipv4.lp typename "\"inet.common.MessageDispatcher\""
par DroneNetwork.loRaGW[0].ipv4.lp displayStringTextFormat "\"processed %p pk (%l)\""
par DroneNetwork.loRaGW[0].ipv4.lp forwardServiceRegistration true
par DroneNetwork.loRaGW[0].ipv4.lp forwardProtocolRegistration true
par DroneNetwork.loRaGW[0].ipv4 typename "\"inet.networklayer.ipv4.Ipv4NetworkLayer\""
par DroneNetwork.loRaGW[0].ipv4 forwarding false
par DroneNetwork.loRaGW[0].ipv4 multicastForwarding false
par DroneNetwork.loRaGW[0].ipv4 interfaceTableModule "\"DroneNetwork.loRaGW[0].interfaceTable\""
par DroneNetwork.loRaGW[0].ipv4 displayStringTextFormat "\"%i\""
par DroneNetwork.loRaGW[0].routingTable typename "\"inet.networklayer.ipv4.Ipv4RoutingTable\""
par DroneNetwork.loRaGW[0].routingTable interfaceTableModule "\"DroneNetwork.loRaGW[0].interfaceTable\""
par DroneNetwork.loRaGW[0].routingTable routerId "\"auto\""
par DroneNetwork.loRaGW[0].routingTable netmaskRoutes "\"*\""
par DroneNetwork.loRaGW[0].routingTable forwarding true
par DroneNetwork.loRaGW[0].routingTable multicastForwarding false
par DroneNetwork.loRaGW[0].routingTable useAdminDist false
par DroneNetwork.loRaGW[0].routingTable routingFile "\"\""
par DroneNetwork.loRaGW[0].ethernet typename "\"inet.linklayer.ethernet.basic.EthernetEncapsulation\""
par DroneNetwork.loRaGW[0].ethernet registerProtocol true
par DroneNetwork.loRaGW[0].ethernet interfaceTableModule "\"DroneNetwork.loRaGW[0].interfaceTable\""
par DroneNetwork.loRaGW[0].ethernet fcsMode "\"declared\""
attr enum declared,computed
par DroneNetwork.loRaGW[0].ethernet stopOperationExtraTime -1s
attr unit s
par DroneNetwork.loRaGW[0].ethernet stopOperationTimeout 2s
attr unit s
scalar DroneNetwork.loRaGW[0].ethernet pauseSent:count 0
attr recordingmode count
attr title "pause sent, count"
scalar DroneNetwork.loRaGW[0].ethernet pauseSent:sum 0
attr recordingmode sum
attr title "pause sent, sum"
scalar DroneNetwork.loRaGW[0].ethernet decapPk:count 0
attr interpolationmode none
attr recordingmode count
attr source decapPk
attr title "packets decapsulated, count"
scalar DroneNetwork.loRaGW[0].ethernet decapPk:sum(packetBytes) 0
attr interpolationmode none
attr recordingmode sum(packetBytes)
attr source decapPk
attr title "packets decapsulated, sum(packetBytes)"
scalar DroneNetwork.loRaGW[0].ethernet encapPk:count 0
attr interpolationmode none
attr recordingmode count
attr source encapPk
attr title "packets encapsulated, count"
scalar DroneNetwork.loRaGW[0].ethernet encapPk:sum(packetBytes) 0
attr interpolationmode none
attr recordingmode sum(packetBytes)
attr source encapPk
attr title "packets encapsulated, sum(packetBytes)"
par DroneNetwork.loRaGW[0] typename "\"flora.LoraNode.LoRaGW\""
par DroneNetwork.loRaGW[0] numEthInterfaces 0
par DroneNetwork.loRaGW[0] numWlanInterfaces 1
par DroneNetwork.loRaGW[0] hasIpv4 true
par DroneNetwork.loRaGW[0] networkLayerType "\"Ipv4NetworkLayer\""
par DroneNetwork.loRaGW[0] routingTableType "\"Ipv4RoutingTable\""
par DroneNetwork.loRaGW[0] numUdpApps 1
par DroneNetwork.loRaGW[0] hasUdp true
par DroneNetwork.loRaGW[0] udpType "\"\""
par DroneNetwork.LoRaMedium.propagation typename "\"inet.physicallayer.wireless.common.propagation.ConstantSpeedPropagation\""
par DroneNetwork.LoRaMedium.propagation propagationSpeed 2.99792e+08mps
attr unit mps
par DroneNetwork.LoRaMedium.propagation ignoreMovementDuringTransmission true
par DroneNetwork.LoRaMedium.propagation ignoreMovementDuringPropagation true
par DroneNetwork.LoRaMedium.propagation ignoreMovementDuringReception true
scalar DroneNetwork.LoRaMedium.propagation "Arrival computation count" 0
par DroneNetwork.LoRaMedium.analogModel typename "\"flora.LoRaPhy.LoRaAnalogModel\""
par DroneNetwork.LoRaMedium.analogModel ignorePartialInterference false
par DroneNetwork.LoRaMedium.backgroundNoise typename "\"inet.physicallayer.wireless.common.backgroundnoise.DimensionalBackgroundNoise\""
par DroneNetwork.LoRaMedium.backgroundNoise gainFunctionCacheLimit 0
par DroneNetwork.LoRaMedium.backgroundNoise timeGains "\"left 0s 0dB left\""
par DroneNetwork.LoRaMedium.backgroundNoise timeGainsNormalization "\"\""
attr enum ,maximum,integral
par DroneNetwork.LoRaMedium.backgroundNoise frequencyGains "\"left 0Hz 0dB left\""
par DroneNetwork.LoRaMedium.backgroundNoise frequencyGainsNormalization "\"integral\""
attr enum ,maximum,integral
par DroneNetwork.LoRaMedium.backgroundNoise power -96.616dBm
attr unit dBm
par DroneNetwork.LoRaMedium.pathLoss typename "\"flora.LoRaPhy.LoRaLogNormalShadowing\""
par DroneNetwork.LoRaMedium.pathLoss alpha 2
par DroneNetwork.LoRaMedium.pathLoss systemLoss 0dB
attr unit dB
par DroneNetwork.LoRaMedium.pathLoss d0 40m
attr unit m
par DroneNetwork.LoRaMedium.pathLoss gamma 2.08
par DroneNetwork.LoRaMedium.pathLoss sigma 3.57
par DroneNetwork.LoRaMedium.mediumLimitCache typename "\"inet.physicallayer.wireless.common.medium.MediumLimitCache\""
par DroneNetwork.LoRaMedium.mediumLimitCache centerFrequency "nan Hz"
attr unit Hz
par DroneNetwork.LoRaMedium.mediumLimitCache maxSpeed "nan mps"
attr unit mps
par DroneNetwork.LoRaMedium.mediumLimitCache maxTransmissionPower "nan W"
attr unit W
par DroneNetwork.LoRaMedium.mediumLimitCache minInterferencePower "nan dBm"
attr unit dBm
par DroneNetwork.LoRaMedium.mediumLimitCache minReceptionPower "nan dBm"
attr unit dBm
par DroneNetwork.LoRaMedium.mediumLimitCache maxAntennaGain 0dB
attr unit dB
par DroneNetwork.LoRaMedium.mediumLimitCache minInterferenceTime 0s
attr unit s
par DroneNetwork.LoRaMedium.mediumLimitCache maxTransmissionDuration 4s
attr unit s
par DroneNetwork.LoRaMedium.mediumLimitCache maxCommunicationRange "nan m"
attr unit m
par DroneNetwork.LoRaMedium.mediumLimitCache maxInterferenceRange "nan m"
attr unit m
par DroneNetwork.LoRaMedium.communicationCache typename "\"inet.physicallayer.wireless.common.communicationcache.VectorCommunicationCache\""
par DroneNetwork.LoRaMedium typename "\"flora.LoRaPhy.LoRaMedium\""
par DroneNetwork.LoRaMedium physicalEnvironmentModule "\"physicalEnvironment\""
par DroneNetwork.LoRaMedium signalAnalogRepresentation "\"scalar\""
attr enum unitDisk,scalar,dimensional
par DroneNetwork.LoRaMedium rangeFilter "\"communicationRange\""
par DroneNetwork.LoRaMedium radioModeFilter false
par DroneNetwork.LoRaMedium listeningFilter false
par DroneNetwork.LoRaMedium macAddressFilter false
par DroneNetwork.LoRaMedium recordTransmissionLog false
par DroneNetwork.LoRaMedium recordReceptionLog false
scalar DroneNetwork.LoRaMedium "transmission count" 0
scalar DroneNetwork.LoRaMedium "signal send count" 0
scalar DroneNetwork.LoRaMedium "reception computation count" 0
scalar DroneNetwork.LoRaMedium "interference computation count" 3
scalar DroneNetwork.LoRaMedium "reception decision computation count" 0
scalar DroneNetwork.LoRaMedium "listening decision computation count" 3
scalar DroneNetwork.LoRaMedium "reception cache hit" -nan
attr unit %
scalar DroneNetwork.LoRaMedium "interference cache hit" -nan
attr unit %
scalar DroneNetwork.LoRaMedium "noise cache hit" -nan
attr unit %
scalar DroneNetwork.LoRaMedium "snir cache hit" -nan
attr unit %
scalar DroneNetwork.LoRaMedium "reception decision cache hit" -nan
attr unit %
scalar DroneNetwork.LoRaMedium "reception result cache hit" -nan
attr unit %
par DroneNetwork.networkServer.ethg$i[0].channel typename "\"ned.IdealChannel\""
par DroneNetwork.networkServer.eth[0].phys$o.channel typename "\"ned.IdealChannel\""
par DroneNetwork.networkServer.interfaceTable typename "\"inet.networklayer.common.InterfaceTable\""
par DroneNetwork.networkServer.interfaceTable displayAddresses false
par DroneNetwork.networkServer.cb typename "\"inet.common.MessageDispatcher\""
par DroneNetwork.networkServer.cb displayStringTextFormat "\"processed %p pk (%l)\""
par DroneNetwork.networkServer.cb forwardServiceRegistration true
par DroneNetwork.networkServer.cb forwardProtocolRegistration true
par DroneNetwork.networkServer.bl typename "\"inet.common.MessageDispatcher\""
par DroneNetwork.networkServer.bl displayStringTextFormat "\"processed %p pk (%l)\""
par DroneNetwork.networkServer.bl forwardServiceRegistration true
par DroneNetwork.networkServer.bl forwardProtocolRegistration true
par DroneNetwork.networkServer.ethernet typename "\"inet.linklayer.ethernet.basic.EthernetEncapsulation\""
par DroneNetwork.networkServer.ethernet registerProtocol true
par DroneNetwork.networkServer.ethernet interfaceTableModule "\"DroneNetwork.networkServer.interfaceTable\""
par DroneNetwork.networkServer.ethernet fcsMode "\"declared\""
attr enum declared,computed
par DroneNetwork.networkServer.ethernet stopOperationExtraTime -1s
attr unit s
par DroneNetwork.networkServer.ethernet stopOperationTimeout 2s
attr unit s
scalar DroneNetwork.networkServer.ethernet pauseSent:count 0
attr recordingmode count
attr title "pause sent, count"
scalar DroneNetwork.networkServer.ethernet pauseSent:sum 0
attr recordingmode sum
attr title "pause sent, sum"
scalar DroneNetwork.networkServer.ethernet decapPk:count 0
attr interpolationmode none
attr recordingmode count
attr source decapPk
attr title "packets decapsulated, count"
scalar DroneNetwork.networkServer.ethernet decapPk:sum(packetBytes) 0
attr interpolationmode none
attr recordingmode sum(packetBytes)
attr source decapPk
attr title "packets decapsulated, sum(packetBytes)"
scalar DroneNetwork.networkServer.ethernet encapPk:count 0
attr interpolationmode none
attr recordingmode count
attr source encapPk
attr title "packets encapsulated, count"
scalar DroneNetwork.networkServer.ethernet encapPk:sum(packetBytes) 0
attr interpolationmode none
attr recordingmode sum(packetBytes)
attr source encapPk
attr title "packets encapsulated, sum(packetBytes)"
par DroneNetwork.networkServer.li typename "\"inet.common.MessageDispatcher\""
par DroneNetwork.networkServer.li displayStringTextFormat "\"processed %p pk (%l)\""
par DroneNetwork.networkServer.li forwardServiceRegistration true
par DroneNetwork.networkServer.li forwardProtocolRegistration true
par DroneNetwork.networkServer.lo[0].upperLayerIn.channel typename "\"ned.IdealChannel\""
par DroneNetwork.networkServer.lo[0].lo.upperLayerOut.channel typename "\"ned.IdealChannel\""
par DroneNetwork.networkServer.lo[0].lo typename "\"inet.linklayer.loopback.Loopback\""
par DroneNetwork.networkServer.lo[0].lo interfaceTableModule "\"DroneNetwork.networkServer.interfaceTable\""
par DroneNetwork.networkServer.lo[0].lo mtu 4470B
attr unit B
scalar DroneNetwork.networkServer.lo[0].lo rcvdPkFromHl:count 0
attr interpolationmode none
attr recordingmode count
attr source packetReceivedFromUpper
attr title "packets received from higher layer, count"
scalar DroneNetwork.networkServer.lo[0].lo rcvdPkFromHl:sum(packetBytes) 0
attr interpolationmode none
attr recordingmode sum(packetBytes)
attr source packetReceivedFromUpper
attr title "packets received from higher layer, sum(packetBytes)"
scalar DroneNetwork.networkServer.lo[0].lo passedUpPk:count 0
attr interpolationmode none
attr recordingmode count
attr source packetSentToUpper
attr title "packets passed to higher layer, count"
scalar DroneNetwork.networkServer.lo[0].lo passedUpPk:sum(packetBytes) 0
attr interpolationmode none
attr recordingmode sum(packetBytes)
attr source packetSentToUpper
attr title "packets passed to higher layer, sum(packetBytes)"
par DroneNetwork.networkServer.lo[0] typename "\"inet.linklayer.loopback.LoopbackInterface\""
par DroneNetwork.networkServer.lo[0] displayStringTextFormat "\"%a (%i)\\n%m\""
par DroneNetwork.networkServer.lo[0] recordPcap false
par DroneNetwork.networkServer.lo[0] numPcapRecorders 0
par DroneNetwork.networkServer.lo[0] interfaceTableModule "\"DroneNetwork.networkServer.interfaceTable\""
scalar DroneNetwork.networkServer.lo[0] packetDropInterfaceDown:count 0
attr interpolationmode none
attr recordingmode count
attr source packetDropReasonIsInterfaceDown(packetDropped)
attr title "packet drops: interface down, count"
scalar DroneNetwork.networkServer.lo[0] packetDropInterfaceDown:sum(packetBytes) 0
attr interpolationmode none
attr recordingmode sum(packetBytes)
attr source packetDropReasonIsInterfaceDown(packetDropped)
attr title "packet drops: interface down, sum(packetBytes)"
scalar DroneNetwork.networkServer.lo[0] packetDropNoCarrier:count 0
attr interpolationmode none
attr recordingmode count
attr source packetDropReasonIsNoCarrier(packetDropped)
attr title "packet drops: no carrier, count"
scalar DroneNetwork.networkServer.lo[0] packetDropNoCarrier:sum(packetBytes) 0
attr interpolationmode none
attr recordingmode sum(packetBytes)
attr source packetDropReasonIsNoCarrier(packetDropped)
attr title "packet drops: no carrier, sum(packetBytes)"
par DroneNetwork.networkServer.eth[0].mac.phys$o.channel typename "\"ned.IdealChannel\""
par DroneNetwork.networkServer.eth[0].phys$i.channel typename "\"ned.IdealChannel\""
par DroneNetwork.networkServer.eth[0].upperLayerIn.channel typename "\"ned.IdealChannel\""
par DroneNetwork.networkServer.eth[0].mac.upperLayerOut.channel typename "\"ned.IdealChannel\""
par DroneNetwork.networkServer.eth[0].queue typename "\"inet.linklayer.ethernet.common.EthernetQueue\""
par DroneNetwork.networkServer.eth[0].queue displayStringTextFormat "\"contains %p pk (%l) pushed %u\\npulled %o removed %r dropped %d\""
par DroneNetwork.networkServer.eth[0].queue packetCapacity 1000
par DroneNetwork.networkServer.eth[0].queue dataCapacity -1b
attr unit b
par DroneNetwork.networkServer.eth[0].queue dropperClass "\"inet::queueing::PacketAtCollectionEndDropper\""
par DroneNetwork.networkServer.eth[0].queue comparatorClass "\"inet::EthernetFrameTypeComparator\""
par DroneNetwork.networkServer.eth[0].queue bufferModule "\"\""
scalar DroneNetwork.networkServer.eth[0].queue queueLength:last nan
attr autoWarmupFilter false
attr interpolationmode sample-hold
attr recordingmode last
attr source "warmup(atomic(constant0(packetPushEnded) + count(packetPushStarted) - count(packetPulled) - count(packetRemoved) - count(packetDropped)))"
attr title "queue length, last"
attr unit pk
scalar DroneNetwork.networkServer.eth[0].queue queueLength:max nan
attr autoWarmupFilter false
attr interpolationmode sample-hold
attr recordingmode max
attr source "warmup(atomic(constant0(packetPushEnded) + count(packetPushStarted) - count(packetPulled) - count(packetRemoved) - count(packetDropped)))"
attr title "queue length, max"
attr unit pk
scalar DroneNetwork.networkServer.eth[0].queue queueLength:timeavg -nan
attr autoWarmupFilter false
attr interpolationmode sample-hold
attr recordingmode timeavg
attr source "warmup(atomic(constant0(packetPushEnded) + count(packetPushStarted) - count(packetPulled) - count(packetRemoved) - count(packetDropped)))"
attr title "queue length, timeavg"
attr unit pk
scalar DroneNetwork.networkServer.eth[0].queue queueBitLength:last nan
attr autoWarmupFilter false
attr interpolationmode sample-hold
attr recordingmode last
attr source "warmup(atomic(constant0(packetPushEnded) + sum(packetLength(packetPushStarted)) - sum(packetLength(packetPulled)) - sum(packetLength(packetRemoved)) - sum(packetLength(packetDropped))))"
attr title "queue bit length, last"
attr unit b
scalar DroneNetwork.networkServer.eth[0].queue queueBitLength:max nan
attr autoWarmupFilter false
attr interpolationmode sample-hold
attr recordingmode max
attr source "warmup(atomic(constant0(packetPushEnded) + sum(packetLength(packetPushStarted)) - sum(packetLength(packetPulled)) - sum(packetLength(packetRemoved)) - sum(packetLength(packetDropped))))"
attr title "queue bit length, max"
attr unit b
scalar DroneNetwork.networkServer.eth[0].queue queueBitLength:timeavg -nan
attr autoWarmupFilter false
attr interpolationmode sample-hold
attr recordingmode timeavg
attr source "warmup(atomic(constant0(packetPushEnded) + sum(packetLength(packetPushStarted)) - sum(packetLength(packetPulled)) - sum(packetLength(packetRemoved)) - sum(packetLength(packetDropped))))"
attr title "queue bit length, timeavg"
attr unit b
statistic DroneNetwork.networkServer.eth[0].queue queueingTime:histogram
field count 0
field mean -nan
field stddev nan
field min nan
field max nan
field sum 0
field sqrsum 0
attr interpolationmode none
attr recordingmode histogram
attr source queueingTime(packetPulled)
attr title "queueing times"
attr unit s
bin	-inf	0
bin	0	0
bin	1	0
scalar DroneNetwork.networkServer.eth[0].queue outgoingPackets:count 0
attr recordingmode count
attr source packetPulled
attr title "outgoing packets, count"
attr unit pk
scalar DroneNetwork.networkServer.eth[0].queue outgoingPacketLengths:sum 0
attr interpolationmode none
attr recordingmode sum
attr source packetLength(packetPulled)
attr title "outgoing packet lengths, sum"
attr unit b
statistic DroneNetwork.networkServer.eth[0].queue outgoingPacketLengths:histogram
field count 0
field mean -nan
field stddev nan
field min nan
field max nan
field sum 0
field sqrsum 0
attr interpolationmode none
attr recordingmode histogram
attr source packetLength(packetPulled)
attr title "outgoing packet lengths"
attr unit b
bin	-inf	0
bin	0	0
bin	1	0
statistic DroneNetwork.networkServer.eth[0].queue flowQueueingTime:histogram
field count 0
field mean -nan
field stddev nan
field min nan
field max nan
field sum 0
field sqrsum 0
attr interpolationmode none
attr recordingmode histogram
attr source queueingTime(demuxFlow(packetPulled))
attr title "flow queueing times"
attr unit s
bin	-inf	0
bin	0	0
bin	1	0
scalar DroneNetwork.networkServer.eth[0].queue incomingPackets:count 0
attr recordingmode count
attr source packetPushStarted
attr title "incoming packets, count"
attr unit pk
scalar DroneNetwork.networkServer.eth[0].queue incomingPacketLengths:sum 0
attr interpolationmode none
[...]
attr title "incoming packet lengths, sum"
attr unit b
statistic DroneNetwork.nsRouter.eth[0].queue incomingPacketLengths:histogram
field count 0
field mean -nan
field stddev nan
field min nan
field max nan
field sum 0
field sqrsum 0
attr interpolationmode none
attr recordingmode histogram
attr source packetLength(packetPushStarted)
attr title "incoming packet lengths"
attr unit b
bin	-inf	0
bin	0	0
bin	1	0
scalar DroneNetwork.nsRouter.eth[0].queue droppedPacketsQueueOverflow:count 0
attr interpolationmode none
attr recordingmode count
attr source packetDropReasonIsQueueOverflow(packetDropped)
attr title "dropped packets: queue overflow, count"
attr unit pk
scalar DroneNetwork.nsRouter.eth[0].queue droppedPacketLengthsQueueOverflow:sum 0
attr interpolationmode none
attr recordingmode sum
attr source packetLength(packetDropReasonIsQueueOverflow(packetDropped))
attr title "dropped packet lengths: queue overflow, sum"
attr unit b
par DroneNetwork.nsRouter.eth[0].mac typename "\"inet.linklayer.ethernet.basic.EthernetMac\""
par DroneNetwork.nsRouter.eth[0].mac interfaceTableModule "\"DroneNetwork.nsRouter.interfaceTable\""
par DroneNetwork.nsRouter.eth[0].mac displayStringTextFormat "\"rate: %b\\nsent: %s, rcvd: %r\\nqueue: %q, drop: %d\""
par DroneNetwork.nsRouter.eth[0].mac sendRawBytes false
par DroneNetwork.nsRouter.eth[0].mac promiscuous false
par DroneNetwork.nsRouter.eth[0].mac duplexMode true
par DroneNetwork.nsRouter.eth[0].mac mtu 1500B
attr unit B
par DroneNetwork.nsRouter.eth[0].mac fcsMode "\"declared\""
attr enum declared,computed
par DroneNetwork.nsRouter.eth[0].mac stopOperationExtraTime -1s
attr unit s
par DroneNetwork.nsRouter.eth[0].mac stopOperationTimeout 2s
attr unit s
scalar DroneNetwork.nsRouter.eth[0].mac "simulated time" 108.84238658545
scalar DroneNetwork.nsRouter.eth[0].mac full-duplex 1
scalar DroneNetwork.nsRouter.eth[0].mac "frames/sec sent" 0
scalar DroneNetwork.nsRouter.eth[0].mac "frames/sec rcvd" 0
scalar DroneNetwork.nsRouter.eth[0].mac "bits/sec sent" 0
scalar DroneNetwork.nsRouter.eth[0].mac "bits/sec rcvd" 0
scalar DroneNetwork.nsRouter.eth[0].mac "rx channel idle (%)" 100
scalar DroneNetwork.nsRouter.eth[0].mac "rx channel utilization (%)" 0
scalar DroneNetwork.nsRouter.eth[0].mac rxPausePkUnits:count 0
attr interpolationmode none
attr recordingmode count
attr title "pause units received, count"
scalar DroneNetwork.nsRouter.eth[0].mac rxPausePkUnits:sum 0
attr interpolationmode none
attr recordingmode sum
attr title "pause units received, sum"
scalar DroneNetwork.nsRouter.eth[0].mac txPausePkUnits:count 0
attr interpolationmode none
attr recordingmode count
attr title "pause units sent, count"
scalar DroneNetwork.nsRouter.eth[0].mac txPausePkUnits:sum 0
attr interpolationmode none
attr recordingmode sum
attr title "pause units sent, sum"
scalar DroneNetwork.nsRouter.eth[0].mac rxPkOk:count 0
attr interpolationmode none
attr recordingmode count
attr source rxPkOk
attr title "packets received OK, count"
scalar DroneNetwork.nsRouter.eth[0].mac rxPkOk:sum(packetBytes) 0
attr interpolationmode none
attr recordingmode sum(packetBytes)
attr source rxPkOk
attr title "packets received OK, sum(packetBytes)"
scalar DroneNetwork.nsRouter.eth[0].mac txPk:count 0
attr interpolationmode none
attr recordingmode count
attr source packetSentToLower
attr title "packets transmitted, count"
scalar DroneNetwork.nsRouter.eth[0].mac txPk:sum(packetBytes) 0
attr interpolationmode none
attr recordingmode sum(packetBytes)
attr source packetSentToLower
attr title "packets transmitted, sum(packetBytes)"
scalar DroneNetwork.nsRouter.eth[0].mac packetReceivedFromUpper:count 0
attr interpolationmode none
attr recordingmode count
attr source packetReceivedFromUpper
attr title "packet bytes from higher layer, count"
scalar DroneNetwork.nsRouter.eth[0].mac packetReceivedFromUpper:sum(packetBytes) 0
attr interpolationmode none
attr recordingmode sum(packetBytes)
attr source packetReceivedFromUpper
attr title "packet bytes from higher layer, sum(packetBytes)"
scalar DroneNetwork.nsRouter.eth[0].mac passedUpPk:count 0
attr interpolationmode none
attr recordingmode count
attr source packetSentToUpper
attr title "packets passed to higher layer, count"
scalar DroneNetwork.nsRouter.eth[0].mac passedUpPk:sum(packetBytes) 0
attr interpolationmode none
attr recordingmode sum(packetBytes)
attr source packetSentToUpper
attr title "packets passed to higher layer, sum(packetBytes)"
scalar DroneNetwork.nsRouter.eth[0].mac packetDropIncorrectlyReceived:count 0
attr interpolationmode none
attr recordingmode count
attr source packetDropReasonIsIncorrectlyReceived(packetDropped)
attr title "packet drop: incorrectly received, count"
scalar DroneNetwork.nsRouter.eth[0].mac packetDropIncorrectlyReceived:sum(packetBytes) 0
attr interpolationmode none
attr recordingmode sum(packetBytes)
attr source packetDropReasonIsIncorrectlyReceived(packetDropped)
attr title "packet drop: incorrectly received, sum(packetBytes)"
scalar DroneNetwork.nsRouter.eth[0].mac packetDropInterfaceDown:count 0
attr interpolationmode none
attr recordingmode count
attr source packetDropReasonIsInterfaceDown(packetDropped)
attr title "packet drop: interface down, count"
scalar DroneNetwork.nsRouter.eth[0].mac packetDropInterfaceDown:sum(packetBytes) 0
attr interpolationmode none
attr recordingmode sum(packetBytes)
attr source packetDropReasonIsInterfaceDown(packetDropped)
attr title "packet drop: interface down, sum(packetBytes)"
scalar DroneNetwork.nsRouter.eth[0].mac packetDropNotAddressedToUs:count 0
attr interpolationmode none
attr recordingmode count
attr source packetDropReasonIsNotAddressedToUs(packetDropped)
attr title "packet drop: not addressed to us, count"
scalar DroneNetwork.nsRouter.eth[0].mac packetDropNotAddressedToUs:sum(packetBytes) 0
attr interpolationmode none
attr recordingmode sum(packetBytes)
attr source packetDropReasonIsNotAddressedToUs(packetDropped)
attr title "packet drop: not addressed to us, sum(packetBytes)"
par DroneNetwork.nsRouter.eth[0] typename "\"inet.linklayer.ethernet.EthernetInterface\""
par DroneNetwork.nsRouter.eth[0] displayStringTextFormat "\"%a (%i)\\n%m\""
par DroneNetwork.nsRouter.eth[0] recordPcap false
par DroneNetwork.nsRouter.eth[0] numPcapRecorders 0
par DroneNetwork.nsRouter.eth[0] interfaceTableModule "\"DroneNetwork.nsRouter.interfaceTable\""
par DroneNetwork.nsRouter.eth[0] protocol "\"ethernetmac\""
par DroneNetwork.nsRouter.eth[0] address "\"0A-AA-00-00-00-0F\""
attr mutable ""
par DroneNetwork.nsRouter.eth[0] duplexMode true
par DroneNetwork.nsRouter.eth[0] csmacdSupport false
par DroneNetwork.nsRouter.eth[0] bitrate 0bps
attr unit bps
par DroneNetwork.nsRouter.eth[0] fcsMode "\"declared\""
attr enum declared,computed
scalar DroneNetwork.nsRouter.eth[0] packetDropInterfaceDown:count 0
attr interpolationmode none
attr recordingmode count
attr source packetDropReasonIsInterfaceDown(packetDropped)
attr title "packet drops: interface down, count"
scalar DroneNetwork.nsRouter.eth[0] packetDropInterfaceDown:sum(packetBytes) 0
attr interpolationmode none
attr recordingmode sum(packetBytes)
attr source packetDropReasonIsInterfaceDown(packetDropped)
attr title "packet drops: interface down, sum(packetBytes)"
scalar DroneNetwork.nsRouter.eth[0] packetDropNoCarrier:count 0
attr interpolationmode none
attr recordingmode count
attr source packetDropReasonIsNoCarrier(packetDropped)
attr title "packet drops: no carrier, count"
scalar DroneNetwork.nsRouter.eth[0] packetDropNoCarrier:sum(packetBytes) 0
attr interpolationmode none
attr recordingmode sum(packetBytes)
attr source packetDropReasonIsNoCarrier(packetDropped)
attr title "packet drops: no carrier, sum(packetBytes)"
par DroneNetwork.nsRouter.ipv4.transportIn.channel typename "\"ned.IdealChannel\""
par DroneNetwork.nsRouter.ipv4.up.out[0].channel typename "\"ned.IdealChannel\""
par DroneNetwork.nsRouter.ipv4.lp.out[2].channel typename "\"ned.IdealChannel\""
par DroneNetwork.nsRouter.ipv4.ifIn.channel typename "\"ned.IdealChannel\""
par DroneNetwork.nsRouter.ipv4.configurator typename "\"inet.networklayer.configurator.ipv4.Ipv4NodeConfigurator\""
par DroneNetwork.nsRouter.ipv4.configurator interfaceTableModule "\"DroneNetwork.nsRouter.interfaceTable\""
par DroneNetwork.nsRouter.ipv4.configurator routingTableModule "\"DroneNetwork.nsRouter.ipv4.routingTable\""
par DroneNetwork.nsRouter.ipv4.configurator networkConfiguratorModule "\"configurator\""
par DroneNetwork.nsRouter.ipv4.configurator configureRoutingTable true
par DroneNetwork.nsRouter.ipv4.routingTable typename "\"inet.networklayer.ipv4.Ipv4RoutingTable\""
par DroneNetwork.nsRouter.ipv4.routingTable interfaceTableModule "\"DroneNetwork.nsRouter.interfaceTable\""
par DroneNetwork.nsRouter.ipv4.routingTable routerId "\"auto\""
par DroneNetwork.nsRouter.ipv4.routingTable netmaskRoutes "\"*\""
par DroneNetwork.nsRouter.ipv4.routingTable forwarding true
par DroneNetwork.nsRouter.ipv4.routingTable multicastForwarding false
par DroneNetwork.nsRouter.ipv4.routingTable useAdminDist false
par DroneNetwork.nsRouter.ipv4.routingTable routingFile "\"\""
par DroneNetwork.nsRouter.ipv4.natTable typename "\"inet.networklayer.ipv4.Ipv4NatTable\""
par DroneNetwork.nsRouter.ipv4.natTable networkProtocolModule "\"^.ip\""
par DroneNetwork.nsRouter.ipv4.natTable config "<config/> at content:1"
par DroneNetwork.nsRouter.ipv4.up typename "\"inet.common.MessageDispatcher\""
par DroneNetwork.nsRouter.ipv4.up displayStringTextFormat "\"processed %p pk (%l)\""
par DroneNetwork.nsRouter.ipv4.up forwardServiceRegistration true
par DroneNetwork.nsRouter.ipv4.up forwardProtocolRegistration true
par DroneNetwork.nsRouter.ipv4.igmp typename "\"inet.networklayer.ipv4.Igmpv2\""
par DroneNetwork.nsRouter.ipv4.igmp interfaceTableModule "\"DroneNetwork.nsRouter.interfaceTable\""
par DroneNetwork.nsRouter.ipv4.igmp routingTableModule "\"DroneNetwork.nsRouter.ipv4.routingTable\""
par DroneNetwork.nsRouter.ipv4.igmp crcMode "\"declared\""
attr enum declared,computed
par DroneNetwork.nsRouter.ipv4.igmp enabled true
par DroneNetwork.nsRouter.ipv4.igmp robustnessVariable 2
par DroneNetwork.nsRouter.ipv4.igmp queryInterval 125s
attr unit s
par DroneNetwork.nsRouter.ipv4.igmp queryResponseInterval 10s
attr unit s
par DroneNetwork.nsRouter.ipv4.igmp groupMembershipInterval 260s
attr unit s
par DroneNetwork.nsRouter.ipv4.igmp otherQuerierPresentInterval 255s
attr unit s
par DroneNetwork.nsRouter.ipv4.igmp startupQueryInterval 31.25s
attr unit s
par DroneNetwork.nsRouter.ipv4.igmp startupQueryCount 2
par DroneNetwork.nsRouter.ipv4.igmp lastMemberQueryInterval 1s
attr unit s
par DroneNetwork.nsRouter.ipv4.igmp lastMemberQueryCount 2
par DroneNetwork.nsRouter.ipv4.igmp unsolicitedReportInterval 10s
attr unit s
par DroneNetwork.nsRouter.ipv4.icmp typename "\"inet.networklayer.ipv4.Icmp\""
par DroneNetwork.nsRouter.ipv4.icmp interfaceTableModule "\"DroneNetwork.nsRouter.interfaceTable\""
par DroneNetwork.nsRouter.ipv4.icmp routingTableModule "\"DroneNetwork.nsRouter.ipv4.routingTable\""
par DroneNetwork.nsRouter.ipv4.icmp crcMode "\"declared\""
attr enum declared,computed
attr mutable ""
par DroneNetwork.nsRouter.ipv4.icmp quoteLength 8B
attr mutable ""
attr unit B
par DroneNetwork.nsRouter.ipv4.mp typename "\"inet.common.MessageDispatcher\""
par DroneNetwork.nsRouter.ipv4.mp displayStringTextFormat "\"processed %p pk (%l)\""
par DroneNetwork.nsRouter.ipv4.mp forwardServiceRegistration true
par DroneNetwork.nsRouter.ipv4.mp forwardProtocolRegistration true
par DroneNetwork.nsRouter.ipv4.ip typename "\"inet.networklayer.ipv4.Ipv4\""
par DroneNetwork.nsRouter.ipv4.ip interfaceTableModule "\"DroneNetwork.nsRouter.interfaceTable\""
par DroneNetwork.nsRouter.ipv4.ip routingTableModule "\"DroneNetwork.nsRouter.ipv4.routingTable\""
par DroneNetwork.nsRouter.ipv4.ip arpModule "\"DroneNetwork.nsRouter.ipv4.arp\""
par DroneNetwork.nsRouter.ipv4.ip icmpModule "\"DroneNetwork.nsRouter.ipv4.icmp\""
par DroneNetwork.nsRouter.ipv4.ip crcMode "\"declared\""
attr enum declared,computed
par DroneNetwork.nsRouter.ipv4.ip timeToLive 32
par DroneNetwork.nsRouter.ipv4.ip multicastTimeToLive 32
par DroneNetwork.nsRouter.ipv4.ip fragmentTimeout 60s
attr unit s
par DroneNetwork.nsRouter.ipv4.ip limitedBroadcast false
par DroneNetwork.nsRouter.ipv4.ip directBroadcastInterfaces "\"\""
scalar DroneNetwork.nsRouter.ipv4.ip packetDropAddressResolutionFailed:count 0
attr interpolationmode none
attr recordingmode count
attr source packetDropReasonIsAddressResolutionFailed(packetDropped)
attr title "packet drop: address resolution failed, count"
scalar DroneNetwork.nsRouter.ipv4.ip packetDropAddressResolutionFailed:sum(packetBytes) 0
attr interpolationmode none
attr recordingmode sum(packetBytes)
attr source packetDropReasonIsAddressResolutionFailed(packetDropped)
attr title "packet drop: address resolution failed, sum(packetBytes)"
scalar DroneNetwork.nsRouter.ipv4.ip packetDropHopLimitReached:count 0
attr interpolationmode none
attr recordingmode count
attr source packetDropReasonIsHopLimitReached(packetDropped)
attr title "packet drop: hop limit reached, count"
scalar DroneNetwork.nsRouter.ipv4.ip packetDropHopLimitReached:sum(packetBytes) 0
attr interpolationmode none
attr recordingmode sum(packetBytes)
attr source packetDropReasonIsHopLimitReached(packetDropped)
attr title "packet drop: hop limit reached, sum(packetBytes)"
scalar DroneNetwork.nsRouter.ipv4.ip packetDropForwardingDisabled:count 0
attr interpolationmode none
attr recordingmode count
attr source packetDropReasonIsForwardingDisabled(packetDropped)
attr title "packet drop: forwarding disabled, count"
scalar DroneNetwork.nsRouter.ipv4.ip packetDropForwardingDisabled:sum(packetBytes) 0
attr interpolationmode none
attr recordingmode sum(packetBytes)
attr source packetDropReasonIsForwardingDisabled(packetDropped)
attr title "packet drop: forwarding disabled, sum(packetBytes)"
scalar DroneNetwork.nsRouter.ipv4.ip packetDropNoInterfaceFound:count 0
attr interpolationmode none
attr recordingmode count
attr source packetDropReasonIsNoInterfaceFound(packetDropped)
attr title "packet drop: no interface found, count"
scalar DroneNetwork.nsRouter.ipv4.ip packetDropNoInterfaceFound:sum(packetBytes) 0
attr interpolationmode none
attr recordingmode sum(packetBytes)
attr source packetDropReasonIsNoInterfaceFound(packetDropped)
attr title "packet drop: no interface found, sum(packetBytes)"
scalar DroneNetwork.nsRouter.ipv4.ip packetDropNoRouteFound:count 0
attr interpolationmode none
attr recordingmode count
attr source packetDropReasonIsNoRouteFound(packetDropped)
attr title "packet drop: no route found, count"
scalar DroneNetwork.nsRouter.ipv4.ip packetDropNoRouteFound:sum(packetBytes) 0
attr interpolationmode none
attr recordingmode sum(packetBytes)
attr source packetDropReasonIsNoRouteFound(packetDropped)
attr title "packet drop: no route found, sum(packetBytes)"
scalar DroneNetwork.nsRouter.ipv4.ip packetDropUndefined:count 0
attr interpolationmode none
attr recordingmode count
attr source packetDropReasonIsUndefined(packetDropped)
attr title "packet drop: undefined, count"
scalar DroneNetwork.nsRouter.ipv4.ip packetDropUndefined:sum(packetBytes) 0
attr interpolationmode none
attr recordingmode sum(packetBytes)
attr source packetDropReasonIsUndefined(packetDropped)
attr title "packet drop: undefined, sum(packetBytes)"
par DroneNetwork.nsRouter.ipv4.arp typename "\"inet.networklayer.arp.ipv4.Arp\""
par DroneNetwork.nsRouter.ipv4.arp interfaceTableModule "\"DroneNetwork.nsRouter.interfaceTable\""
par DroneNetwork.nsRouter.ipv4.arp routingTableModule "\"DroneNetwork.nsRouter.ipv4.routingTable\""
par DroneNetwork.nsRouter.ipv4.arp retryTimeout 1s
attr unit s
par DroneNetwork.nsRouter.ipv4.arp retryCount 3
par DroneNetwork.nsRouter.ipv4.arp cacheTimeout 120s
attr unit s
par DroneNetwork.nsRouter.ipv4.arp proxyArpInterfaces "\"*\""
scalar DroneNetwork.nsRouter.ipv4.arp arpResolutionFailed:count 0
attr recordingmode count
attr title "ARP failed resolutions, count"
scalar DroneNetwork.nsRouter.ipv4.arp arpResolutionCompleted:count 0
attr recordingmode count
attr title "ARP completed resolutions, count"
scalar DroneNetwork.nsRouter.ipv4.arp arpResolutionInitiated:count 0
attr recordingmode count
attr title "ARP initiated resolutions, count"
scalar DroneNetwork.nsRouter.ipv4.arp arpReplySent:count 0
attr recordingmode count
attr source arpReplySent
attr title "ARP replies sent, count"
scalar DroneNetwork.nsRouter.ipv4.arp arpReplySent:sum(packetBytes) 0
attr recordingmode sum(packetBytes)
attr source arpReplySent
attr title "ARP replies sent, sum(packetBytes)"
scalar DroneNetwork.nsRouter.ipv4.arp arpRequestSent:count 0
attr recordingmode count
attr source arpRequestSent
attr title "ARP request sent, count"
scalar DroneNetwork.nsRouter.ipv4.arp arpRequestSent:sum(packetBytes) 0
attr recordingmode sum(packetBytes)
attr source arpRequestSent
attr title "ARP request sent, sum(packetBytes)"
par DroneNetwork.nsRouter.ipv4.lp typename "\"inet.common.MessageDispatcher\""
par DroneNetwork.nsRouter.ipv4.lp displayStringTextFormat "\"processed %p pk (%l)\""
par DroneNetwork.nsRouter.ipv4.lp forwardServiceRegistration true
par DroneNetwork.nsRouter.ipv4.lp forwardProtocolRegistration true
par DroneNetwork.nsRouter.ipv4 typename "\"inet.networklayer.ipv4.Ipv4NetworkLayer\""
par DroneNetwork.nsRouter.ipv4 forwarding true
par DroneNetwork.nsRouter.ipv4 multicastForwarding false
par DroneNetwork.nsRouter.ipv4 interfaceTableModule "\"DroneNetwork.nsRouter.interfaceTable\""
par DroneNetwork.nsRouter.ipv4 displayStringTextFormat "\"%i\""
par DroneNetwork.nsRouter.nl typename "\"inet.common.MessageDispatcher\""
par DroneNetwork.nsRouter.nl displayStringTextFormat "\"processed %p pk (%l)\""
par DroneNetwork.nsRouter.nl forwardServiceRegistration true
par DroneNetwork.nsRouter.nl forwardProtocolRegistration true
par DroneNetwork.nsRouter.tn typename "\"inet.common.MessageDispatcher\""
par DroneNetwork.nsRouter.tn displayStringTextFormat "\"processed %p pk (%l)\""
par DroneNetwork.nsRouter.tn forwardServiceRegistration true
par DroneNetwork.nsRouter.tn forwardProtocolRegistration true
par DroneNetwork.nsRouter.at typename "\"inet.common.MessageDispatcher\""
par DroneNetwork.nsRouter.at displayStringTextFormat "\"processed %p pk (%l)\""
par DroneNetwork.nsRouter.at forwardServiceRegistration true
par DroneNetwork.nsRouter.at forwardProtocolRegistration true
par DroneNetwork.nsRouter typename "\"inet.node.inet.Router\""
par DroneNetwork.nsRouter hasStatus false
par DroneNetwork.nsRouter osgModel "\"\""
par DroneNetwork.nsRouter osgModelColor "\"\""
par DroneNetwork.nsRouter canvasImage "\"\""
par DroneNetwork.nsRouter canvasImageColor "\"\""
par DroneNetwork.nsRouter recordPcap false
par DroneNetwork.nsRouter numPcapRecorders 0
par DroneNetwork.nsRouter numLoInterfaces 1
par DroneNetwork.nsRouter numWlanInterfaces 0
par DroneNetwork.nsRouter numEthInterfaces 0
par DroneNetwork.nsRouter numPppInterfaces 0
par DroneNetwork.nsRouter numTunInterfaces 0
par DroneNetwork.nsRouter numVirtInterfaces 0
par DroneNetwork.nsRouter fcsMode "\"declared\""
attr enum declared,computed
par DroneNetwork.nsRouter hasIpv4 true
par DroneNetwork.nsRouter hasIpv6 false
par DroneNetwork.nsRouter hasGn false
par DroneNetwork.nsRouter forwarding true
par DroneNetwork.nsRouter multicastForwarding false
par DroneNetwork.nsRouter hasUdp false
par DroneNetwork.nsRouter hasTcp false
par DroneNetwork.nsRouter hasSctp false
par DroneNetwork.nsRouter numApps 0
par DroneNetwork.nsRouter hasEigrp false
par DroneNetwork.nsRouter hasOspf false
par DroneNetwork.nsRouter hasRip false
par DroneNetwork.nsRouter hasBgp false
par DroneNetwork.nsRouter hasPim false
par DroneNetwork.nsRouter hasDhcp false
par DroneNetwork typename "\"DroneNetwork\""
par DroneNetwork numberOfNodes 10
par DroneNetwork numberOfGateways 1
par DroneNetwork networkSizeX 500
par DroneNetwork networkSizeY 500
par DroneNetwork networkSizeZ 0

