version 3
run General-0-20250609-16:20:02-415223
attr configname General
attr datetime 20250609-16:20:02
attr datetimef 20250609-162002
attr experiment General
attr inifile omnetpp.ini
attr iterationvars ""
attr iterationvarsd ""
attr iterationvarsf ""
attr measurement ""
attr network DroneNetwork
attr processid 415223
attr repetition 0
attr replication #0
attr resultdir results
attr runnumber 0
attr seedset 0
config image-path ../inet4.4/images
config network DroneNetwork
config sim-time-limit 1d
config simtime-resolution -11
config repeat 30
config **.vector-recording true
config rng-class cMersenneTwister
config *.configurator.typename Ipv4NetworkConfigurator
config **.ipv4Delayer.config "xmldoc(\"/home/alperen/omnetpp-6.0/samples/flora/simulations/cloudDelays.xml\")"
config **.radio.radioMediumModule "\"LoRaMedium\""
config **.LoRaMedium.pathLossType "\"LoRaLogNormalShadowing\""
config **.LoRaMedium.mediumLimitCacheType "\"LoRaMediumCache\""
config **.LoRaMedium.rangeFilter "\"communicationRange\""
config **.LoRaMedium.neighborCacheType "\"LoRaNeighborCache\""
config **.LoRaMedium.neighborCache.range 546m
config **.LoRaMedium.neighborCache.refillPeriod 3000s
config **.minInterferenceTime 0s
config **.displayAddresses false
config **.maxTransmissionDuration 4s
config **.energyDetection -110dBm
config **.updateInterval 2s
config **.alohaChannelModel false
config LoRaNetworkTest.**.radio.separateTransmissionParts false
config LoRaNetworkTest.**.radio.separateReceptionParts false
config **.sigma 3.57
config **.numberOfNodes 1
config **.constraintAreaMinX 0m
config **.constraintAreaMinY 0m
config **.constraintAreaMinZ 0m
config **.constraintAreaMaxX 600m
config **.constraintAreaMaxY 600m
config **.constraintAreaMaxZ 0m
config **.Drone[*].**.initialX 200m
config **.Drone[*].**.initialY 200m
config **.Drone[*].**initialLoRaSF 12
config **.Drone[*].**initialLoRaTP 14dBm
config **.Drone[*].**initialLoRaBW "125 kHz"
config **.Drone[*].**initialLoRaCR 4
config **.Drone[*].**.initFromDisplayString false
config **.Drone[*].**.evaluateADRinNode true
config **.Drone[*].LoRaNic.radio.energyConsumer.typename LoRaEnergyConsumer
config **.Drone[*].LoRaNic.energySourceModule "\"^.IdealEpEnergyStorage\""
config **.Drone[*].**.energySourceModule "\"^.IdealEpEnergyStorage\""
config **.Drone[*].LoRaNic.radio.energyConsumer.configFile "xmldoc(\"/home/alperen/omnetpp-6.0/samples/flora/simulations/energyConsumptionParameters.xml\")"
config **.Drone[*].numUdpApps 2
config **.Drone[*].udpApp[0].typename SimpleLoRaApp
config **.Drone[*].udpApp[0].localPort 6000
config **.Drone[*].udpApp[0].destPort 2000
config **.Drone[*].udpApp[0].destAddresses "\"loRaGW[0]\""
config **.Drone[*].udpApp[0].timeToFirstPacket uniform(0s,1s)
config **.Drone[*].udpApp[0].timeToNextPacket exponential(1s)
config **.Drone[*].udpApp[1].typename UdpSink
config **.Drone[*].udpApp[1].localPort 7000
config **.numberOfGateways 1
config **.loRaGW[0].**.initialX 200m
config **.loRaGW[0].**.initialY 200m
config **.loRaGW[0].**.initFromDisplayString false
config **.LoRaGWNic.radio.iAmGateway true
config **.loRaGW[0].numUdpApps 1
config **.loRaGW[0].udpApp[0].typename UdpForwardApp
config **.loRaGW[0].udpApp[0].localPort 2000
config **.loRaGW[0].udpApp[0].destPort 7000
config **.loRaGW[0].udpApp[0].destAddresses "\"Drone[0..9]\""
config **.networkServer.numApps 1
config **.networkServer.app[0].typename NetworkServerApp
config **.networkServer.app[0].localPort 1000
config **.networkServer.app[0].destPort 2000
config **.networkServer.app[0].destAddresses "\"loRaGW[0]\""
config **.networkServer.**.evaluateADRinServer true
config **.networkServer.app[0].adrMethod "\"avg\""
config **.numberOfPacketsToSend 0
config **.timeToFirstPacket uniform(0s,1s)
config **.timeToNextPacket exponential(1s)

vector 0 DroneNetwork.loRaGW[0].udp passedUpPk:vector(count) ETV
attr interpolationmode none
attr recordingmode vector(count)
attr source packetSentToUpper
attr title "packets passed up, count"
vector 1 DroneNetwork.loRaGW[0].udp droppedPkWrongPort:vector(count) ETV
attr interpolationmode none
attr recordingmode vector(count)
attr source packetDropReasonIsNoPortFound(packetDropped)
attr title "packets dropped (wrong port), count"
vector 2 DroneNetwork.loRaGW[0].udp droppedPkBadChecksum:vector(count) ETV
attr interpolationmode none
attr recordingmode vector(count)
attr source packetDropReasonIsIncorrectlyReceived(packetDropped)
attr title "packets dropped (checksum error), count"
vector 3 DroneNetwork.networkServer.udp passedUpPk:vector(count) ETV
attr interpolationmode none
attr recordingmode vector(count)
attr source packetSentToUpper
attr title "packets passed up, count"
vector 4 DroneNetwork.networkServer.udp droppedPkWrongPort:vector(count) ETV
attr interpolationmode none
attr recordingmode vector(count)
attr source packetDropReasonIsNoPortFound(packetDropped)
attr title "packets dropped (wrong port), count"
vector 5 DroneNetwork.networkServer.udp droppedPkBadChecksum:vector(count) ETV
attr interpolationmode none
attr recordingmode vector(count)
attr source packetDropReasonIsIncorrectlyReceived(packetDropped)
attr title "packets dropped (checksum error), count"
vector 6 DroneNetwork.internetCloud.ppp[0].ppp transmissionState:vector ETV
attr interpolationmode sample-hold
attr recordingmode vector
attr source transmissionStateChanged
attr title "tx state"
vector 7 DroneNetwork.internetCloud.ppp[1].ppp transmissionState:vector ETV
attr interpolationmode sample-hold
attr recordingmode vector
attr source transmissionStateChanged
attr title "tx state"
vector 8 DroneNetwork.gwRouter[0].ppp[0].ppp transmissionState:vector ETV
attr interpolationmode sample-hold
attr recordingmode vector
attr source transmissionStateChanged
attr title "tx state"
vector 9 DroneNetwork.nsRouter.ppp[0].ppp transmissionState:vector ETV
attr interpolationmode sample-hold
attr recordingmode vector
attr source transmissionStateChanged
attr title "tx state"
vector 10 DroneNetwork.Drone1.LoRaNic.radio radioMode:vector ETV
attr interpolationmode sample-hold
attr recordingmode vector
attr source radioModeChanged
attr title "Radio mode"
vector 11 DroneNetwork.loRaGW[0].LoRaGWNic.radio radioMode:vector ETV
attr interpolationmode sample-hold
attr recordingmode vector
attr source radioModeChanged
attr title "Radio mode"
vector 12 DroneNetwork.loRaGW[0].LoRaGWNic.radio receptionState:vector ETV
attr interpolationmode sample-hold
attr recordingmode vector
attr source receptionStateChanged
attr title "Radio reception state"
vector 13 DroneNetwork.loRaGW[0].LoRaGWNic.radio transmissionState:vector ETV
attr interpolationmode sample-hold
attr recordingmode vector
attr source transmissionStateChanged
attr title "Radio transmission state"
0	0	0	0
1	0	0	0
2	0	0	0
3	0	0	0
4	0	0	0
5	0	0	0
6	0	0	0
7	0	0	0
8	0	0	0
9	0	0	0
10	0	0	0
10	0	0	0
10	0	0	1
11	0	0	0
11	0	0	0
11	0	0	4
12	0	0	1
13	0	0	1
vector 14 DroneNetwork.Drone1.LoRaNic.queue outgoingDataRate:vector ETV
attr interpolationmode linear
attr recordingmode vector
attr source throughput(packetPulled)
attr title "outgoing datarate"
attr unit bps
vector 15 DroneNetwork.Drone1.LoRaNic.queue incomingDataRate:vector ETV
attr interpolationmode linear
attr recordingmode vector
attr source throughput(packetPushStarted)
attr title "incoming datarate"
attr unit bps
vector 16 DroneNetwork.loRaGW[0].eth[0].queue outgoingDataRate:vector ETV
attr interpolationmode linear
attr recordingmode vector
attr source throughput(packetPulled)
attr title "outgoing datarate"
attr unit bps
vector 17 DroneNetwork.loRaGW[0].eth[0].queue incomingDataRate:vector ETV
attr interpolationmode linear
attr recordingmode vector
attr source throughput(packetPushStarted)
attr title "incoming datarate"
attr unit bps
vector 18 DroneNetwork.networkServer.eth[0].queue outgoingDataRate:vector ETV
attr interpolationmode linear
attr recordingmode vector
attr source throughput(packetPulled)
attr title "outgoing datarate"
attr unit bps
vector 19 DroneNetwork.networkServer.eth[0].queue incomingDataRate:vector ETV
attr interpolationmode linear
attr recordingmode vector
attr source throughput(packetPushStarted)
attr title "incoming datarate"
attr unit bps
vector 20 DroneNetwork.internetCloud.ppp[0].queue outgoingDataRate:vector ETV
attr interpolationmode linear
attr recordingmode vector
attr source throughput(packetPulled)
attr title "outgoing datarate"
attr unit bps
vector 21 DroneNetwork.internetCloud.ppp[0].queue incomingDataRate:vector ETV
attr interpolationmode linear
attr recordingmode vector
attr source throughput(packetPushStarted)
attr title "incoming datarate"
attr unit bps
vector 22 DroneNetwork.internetCloud.ppp[1].queue outgoingDataRate:vector ETV
attr interpolationmode linear
attr recordingmode vector
attr source throughput(packetPulled)
attr title "outgoing datarate"
attr unit bps
vector 23 DroneNetwork.internetCloud.ppp[1].queue incomingDataRate:vector ETV
attr interpolationmode linear
attr recordingmode vector
attr source throughput(packetPushStarted)
attr title "incoming datarate"
attr unit bps
vector 24 DroneNetwork.gwRouter[0].ppp[0].queue outgoingDataRate:vector ETV
attr interpolationmode linear
attr recordingmode vector
attr source throughput(packetPulled)
attr title "outgoing datarate"
attr unit bps
vector 25 DroneNetwork.gwRouter[0].ppp[0].queue incomingDataRate:vector ETV
attr interpolationmode linear
attr recordingmode vector
attr source throughput(packetPushStarted)
attr title "incoming datarate"
attr unit bps
vector 26 DroneNetwork.gwRouter[0].eth[0].queue outgoingDataRate:vector ETV
attr interpolationmode linear
attr recordingmode vector
attr source throughput(packetPulled)
attr title "outgoing datarate"
attr unit bps
vector 27 DroneNetwork.gwRouter[0].eth[0].queue incomingDataRate:vector ETV
attr interpolationmode linear
attr recordingmode vector
attr source throughput(packetPushStarted)
attr title "incoming datarate"
attr unit bps
vector 28 DroneNetwork.nsRouter.ppp[0].queue outgoingDataRate:vector ETV
attr interpolationmode linear
attr recordingmode vector
attr source throughput(packetPulled)
attr title "outgoing datarate"
attr unit bps
vector 29 DroneNetwork.nsRouter.ppp[0].queue incomingDataRate:vector ETV
attr interpolationmode linear
attr recordingmode vector
attr source throughput(packetPushStarted)
attr title "incoming datarate"
attr unit bps
vector 30 DroneNetwork.nsRouter.eth[0].queue outgoingDataRate:vector ETV
attr interpolationmode linear
attr recordingmode vector
attr source throughput(packetPulled)
attr title "outgoing datarate"
attr unit bps
vector 31 DroneNetwork.nsRouter.eth[0].queue incomingDataRate:vector ETV
attr interpolationmode linear
attr recordingmode vector
attr source throughput(packetPushStarted)
attr title "incoming datarate"
attr unit bps
14	728	0.1	0
14	728	0.2	0
14	728	0.3	0
14	728	0.4	0
14	728	0.5	0
14	728	0.6	0
14	728	0.7	0
14	728	0.8	0
14	728	0.9	0
14	728	1	0
14	728	1.1	0
14	728	1.2	0
14	728	1.3	0
14	728	1.4	0
14	728	1.5	0
14	728	1.6	0
14	728	1.7	0
14	728	1.8	0
14	728	1.9	0
14	728	2	0
14	728	2.1	0
14	728	2.2	0
14	728	2.3	0
14	728	2.4	0
14	728	2.5	0
14	728	2.6	0
14	728	2.7	0
14	728	2.8	0
14	728	2.9	0
14	728	3	0
14	728	3.1	0
14	728	3.2	0
14	728	3.3	0
14	728	3.4	0
14	728	3.5	0
14	728	3.6	0
14	728	3.7	0
14	728	3.8	0
14	728	3.9	0
14	728	4	0
14	728	4.1	0
14	728	4.2	0
14	728	4.3	0
14	728	4.4	0
14	728	4.5	0
14	728	4.6	0
14	728	4.7	0
14	728	4.8	0
14	728	4.9	0
14	728	5	0
14	728	5.1	0
14	728	5.2	0
14	728	5.3	0
14	728	5.4	0
14	728	5.5	0
14	728	5.6	0
14	728	5.7	0
14	728	5.8	0
14	728	5.9	0
14	728	6	0
14	728	6.1	0
14	728	6.2	0
14	728	6.3	0
14	728	6.4	0
14	728	6.5	0
14	728	6.6	0
14	728	6.7	0
14	728	6.8	0
14	728	6.9	0
14	728	7	0
14	728	7.1	0
14	728	7.2	0
14	728	7.3	0
14	728	7.4	0
14	728	7.5	0
14	728	7.6	0
14	728	7.7	0
14	728	7.8	0
14	728	7.9	0
14	728	8	0
14	728	8.1	0
14	728	8.2	0
14	728	8.3	0
14	728	8.4	0
14	728	8.5	0
14	728	8.6	0
14	728	8.7	0
14	728	8.8	0
14	728	8.9	0
14	728	9	0
14	728	9.1	0
14	728	9.2	0
14	728	9.3	0
14	728	9.4	0
14	728	9.5	0
14	728	9.6	0
14	728	9.7	0
14	728	9.8	0
14	728	9.9	0
14	728	10	0
14	728	10.1	0
14	728	10.2	0
14	728	10.3	0
14	728	10.4	0
14	728	10.5	0
14	728	10.6	0
14	728	10.7	0
14	728	10.8	0
14	728	10.9	0
14	728	11	0
14	728	11.1	0
14	728	11.2	0
14	728	11.3	0
14	728	11.4	0
14	728	11.5	0
14	728	11.6	0
14	728	11.7	0
14	728	11.8	0
14	728	11.9	0
14	728	12	0
14	728	12.1	0
14	728	12.2	0
14	728	12.3	0
14	728	12.4	0
14	728	12.5	0
14	728	12.6	0
14	728	12.7	0
14	728	12.8	0
14	728	12.9	0
14	728	13	0
14	728	13.1	0
14	728	13.2	0
14	728	13.3	0
14	728	13.4	0
14	728	13.5	0
14	728	13.6	0
14	728	13.7	0
14	728	13.8	0
14	728	13.9	0
14	728	14	0
14	728	14.1	0
14	728	14.2	0
14	728	14.3	0
14	728	14.4	0
14	728	14.5	0
14	728	14.6	0
14	728	14.7	0
14	728	14.8	0
14	728	14.9	0
14	728	15	0
14	728	15.1	0
14	728	15.2	0
14	728	15.3	0
14	728	15.4	0
14	728	15.5	0
14	728	15.6	0
14	728	15.7	0
14	728	15.8	0
14	728	15.9	0
14	728	16	0
14	728	16.1	0
14	728	16.2	0
14	728	16.3	0
14	728	16.4	0
14	728	16.5	0
14	728	16.6	0
14	728	16.7	0
14	728	16.8	0
14	728	16.9	0
14	728	17	0
14	728	17.1	0
14	728	17.2	0
14	728	17.3	0
14	728	17.4	0
14	728	17.5	0
14	728	17.6	0
14	728	17.7	0
14	728	17.8	0
14	728	17.9	0
14	728	18	0
14	728	18.1	0
14	728	18.2	0
14	728	18.3	0
14	728	18.4	0
14	728	18.5	0
14	728	18.6	0
14	728	18.7	0
14	728	18.8	0
14	728	18.9	0
14	728	19	0
14	728	19.1	0
14	728	19.2	0
14	728	19.3	0
14	728	19.4	0
14	728	19.5	0
14	728	19.6	0
14	728	19.7	0
14	728	19.8	0
14	728	19.9	0
14	728	20	0
14	728	20.1	0
14	728	20.2	0
14	728	20.3	0
14	728	20.4	0
14	728	20.5	0
14	728	20.6	0
14	728	20.7	0
14	728	20.8	0
14	728	20.9	0
14	728	21	0
14	728	21.1	0
14	728	21.2	0
14	728	21.3	0
14	728	21.4	0
14	728	21.5	0
14	728	21.6	0
14	728	21.7	0
14	728	21.8	0
14	728	21.9	0
14	728	22	0
14	728	22.1	0
14	728	22.2	0
14	728	22.3	0
14	728	22.4	0
14	728	22.5	0
14	728	22.6	0
14	728	22.7	0
14	728	22.8	0
14	728	22.9	0
14	728	23	0
14	728	23.1	0
14	728	23.2	0
14	728	23.3	0
14	728	23.4	0
14	728	23.5	0
14	728	23.6	0
14	728	23.7	0
14	728	23.8	0
14	728	23.9	0
14	728	24	0
14	728	24.1	0
14	728	24.2	0
14	728	24.3	0
14	728	24.4	0
14	728	24.5	0
14	728	24.6	0
14	728	24.7	0
14	728	24.8	0
14	728	24.9	0
14	728	25	0
14	728	25.1	0
14	728	25.2	0
14	728	25.3	0
14	728	25.4	0
14	728	25.5	0
14	728	25.6	0
14	728	25.7	0
14	728	25.8	0
14	728	25.9	0
14	728	26	0
14	728	26.1	0
14	728	26.2	0
14	728	26.3	0
14	728	26.4	0
14	728	26.5	0
14	728	26.6	0
14	728	26.7	0
14	728	26.8	0
14	728	26.9	0
14	728	27	0
14	728	27.1	0
14	728	27.2	0
14	728	27.3	0
14	728	27.4	0
14	728	27.5	0
14	728	27.6	0
14	728	27.7	0
14	728	27.8	0
14	728	27.9	0
14	728	28	0
14	728	28.1	0
14	728	28.2	0
14	728	28.3	0
14	728	28.4	0
14	728	28.5	0
14	728	28.6	0
14	728	28.7	0
14	728	28.8	0
14	728	28.9	0
14	728	29	0
14	728	29.1	0
14	728	29.2	0
14	728	29.3	0
14	728	29.4	0
14	728	29.5	0
14	728	29.6	0
14	728	29.7	0
14	728	29.8	0
14	728	29.9	0
14	728	30	0
14	728	30.1	0
14	728	30.2	0
14	728	30.3	0
14	728	30.4	0
14	728	30.5	0
14	728	30.6	0
14	728	30.7	0
14	728	30.8	0
14	728	30.9	0
14	728	31	0
14	728	31.1	0
14	728	31.2	0
14	728	31.3	0
14	728	31.4	0
14	728	31.5	0
14	728	31.6	0
14	728	31.7	0
14	728	31.8	0
14	728	31.9	0
14	728	32	0
14	728	32.1	0
14	728	32.2	0
14	728	32.3	0
14	728	32.4	0
14	728	32.5	0
14	728	32.6	0
14	728	32.7	0
14	728	32.8	0
14	728	32.9	0
14	728	33	0
14	728	33.1	0
14	728	33.2	0
14	728	33.3	0
14	728	33.4	0
14	728	33.5	0
14	728	33.6	0
14	728	33.7	0
14	728	33.8	0
14	728	33.9	0
14	728	34	0
14	728	34.1	0
14	728	34.2	0
14	728	34.3	0
14	728	34.4	0
14	728	34.5	0
14	728	34.6	0
14	728	34.7	0
14	728	34.8	0
14	728	34.9	0
14	728	35	0
14	728	35.1	0
14	728	35.2	0
14	728	35.3	0
14	728	35.4	0
14	728	35.5	0
14	728	35.6	0
14	728	35.7	0
14	728	35.8	0
14	728	35.9	0
14	728	36	0
14	728	36.1	0
14	728	36.2	0
14	728	36.3	0
14	728	36.4	0
14	728	36.5	0
14	728	36.6	0
14	728	36.7	0
14	728	36.8	0
14	728	36.9	0
14	728	37	0
14	728	37.1	0
14	728	37.2	0
14	728	37.3	0
14	728	37.4	0
14	728	37.5	0
14	728	37.6	0
14	728	37.7	0
14	728	37.8	0
14	728	37.9	0
14	728	38	0
14	728	38.1	0
14	728	38.2	0
14	728	38.3	0
14	728	38.4	0
14	728	38.5	0
14	728	38.6	0
14	728	38.7	0
14	728	38.8	0
14	728	38.9	0
14	728	39	0
14	728	39.1	0
14	728	39.2	0
14	728	39.3	0
14	728	39.4	0
14	728	39.5	0
14	728	39.6	0
14	728	39.7	0
14	728	39.8	0
14	728	39.9	0
14	728	40	0
14	728	40.1	0
14	728	40.2	0
14	728	40.3	0
14	728	40.4	0
14	728	40.5	0
14	728	40.6	0
14	728	40.7	0
14	728	40.8	0
14	728	40.9	0
14	728	41	0
14	728	41.1	0
14	728	41.2	0
14	728	41.3	0
14	728	41.4	0
14	728	41.5	0
14	728	41.6	0
14	728	41.7	0
14	728	41.8	0
14	728	41.9	0
14	728	42	0
14	728	42.1	0
14	728	42.2	0
14	728	42.3	0
14	728	42.4	0
14	728	42.5	0
14	728	42.6	0
14	728	42.7	0
14	728	42.8	0
14	728	42.9	0
14	728	43	0
14	728	43.1	0
14	728	43.2	0
14	728	43.3	0
14	728	43.4	0
14	728	43.5	0
14	728	43.6	0
14	728	43.7	0
14	728	43.8	0
14	728	43.9	0
14	728	44	0
14	728	44.1	0
14	728	44.2	0
14	728	44.3	0
14	728	44.4	0
14	728	44.5	0
14	728	44.6	0
14	728	44.7	0
14	728	44.8	0
14	728	44.9	0
14	728	45	0
14	728	45.1	0
14	728	45.2	0
14	728	45.3	0
14	728	45.4	0
14	728	45.5	0
14	728	45.6	0
14	728	45.7	0
14	728	45.8	0
14	728	45.9	0
14	728	46	0
14	728	46.1	0
14	728	46.2	0
14	728	46.3	0
14	728	46.4	0
14	728	46.5	0
14	728	46.6	0
14	728	46.7	0
14	728	46.8	0
14	728	46.9	0
14	728	47	0
14	728	47.1	0
14	728	47.2	0
14	728	47.3	0
14	728	47.4	0
14	728	47.5	0
14	728	47.6	0
14	728	47.7	0
14	728	47.8	0
14	728	47.9	0
14	728	48	0
14	728	48.1	0
14	728	48.2	0
14	728	48.3	0
14	728	48.4	0
14	728	48.5	0
14	728	48.6	0
14	728	48.7	0
14	728	48.8	0
14	728	48.9	0
14	728	49	0
14	728	49.1	0
14	728	49.2	0
14	728	49.3	0
14	728	49.4	0
14	728	49.5	0
14	728	49.6	0
14	728	49.7	0
14	728	49.8	0
14	728	49.9	0
14	728	50	0
14	728	50.1	0
14	728	50.2	0
14	728	50.3	0
14	728	50.4	0
14	728	50.5	0
14	728	50.6	0
14	728	50.7	0
14	728	50.8	0
14	728	50.9	0
14	728	51	0
14	728	51.1	0
14	728	51.2	0
14	728	51.3	0
14	728	51.4	0
14	728	51.5	0
14	728	51.6	0
14	728	51.7	0
14	728	51.8	0
14	728	51.9	0
14	728	52	0
14	728	52.1	0
14	728	52.2	0
14	728	52.3	0
14	728	52.4	0
14	728	52.5	0
14	728	52.6	0
14	728	52.7	0
14	728	52.8	0
14	728	52.9	0
14	728	53	0
14	728	53.1	0
14	728	53.2	0
14	728	53.3	0
14	728	53.4	0
14	728	53.5	0
14	728	53.6	0
14	728	53.7	0
14	728	53.8	0
14	728	53.9	0
14	728	54	0
14	728	54.1	0
14	728	54.2	0
14	728	54.3	0
14	728	54.4	0
14	728	54.5	0
14	728	54.6	0
14	728	54.7	0
14	728	54.8	0
14	728	54.9	0
14	728	55	0
14	728	55.1	0
14	728	55.2	0
14	728	55.3	0
14	728	55.4	0
14	728	55.5	0
14	728	55.6	0
14	728	55.7	0
14	728	55.8	0
14	728	55.9	0
14	728	56	0
14	728	56.1	0
14	728	56.2	0
14	728	56.3	0
14	728	56.4	0
14	728	56.5	0
14	728	56.6	0
14	728	56.7	0
14	728	56.8	0
14	728	56.9	0
14	728	57	0
14	728	57.1	0
14	728	57.2	0
14	728	57.3	0
14	728	57.4	0
14	728	57.5	0
14	728	57.6	0
14	728	57.7	0
14	728	57.8	0
14	728	57.9	0
14	728	58	0
14	728	58.1	0
14	728	58.2	0
14	728	58.3	0
14	728	58.4	0
14	728	58.5	0
14	728	58.6	0
14	728	58.7	0
14	728	58.8	0
14	728	58.9	0
14	728	59	0
14	728	59.1	0
14	728	59.2	0
14	728	59.3	0
14	728	59.4	0
14	728	59.5	0
14	728	59.6	0
14	728	59.7	0
14	728	59.8	0
14	728	59.9	0
14	728	60	0
14	728	60.1	0
14	728	60.2	0
14	728	60.3	0
14	728	60.4	0
14	728	60.5	0
14	728	60.6	0
14	728	60.7	0
14	728	60.8	0
14	728	60.9	0
14	728	61	0
14	728	61.1	0
14	728	61.2	0
14	728	61.3	0
14	728	61.4	0
14	728	61.5	0
14	728	61.6	0
14	728	61.7	0
14	728	61.8	0
14	728	61.9	0
14	728	62	0
14	728	62.1	0
14	728	62.2	0
14	728	62.3	0
14	728	62.4	0
14	728	62.5	0
14	728	62.6	0
14	728	62.7	0
14	728	62.8	0
14	728	62.9	0
14	728	63	0
14	728	63.1	0
14	728	63.2	0
14	728	63.3	0
14	728	63.4	0
14	728	63.5	0
14	728	63.6	0
14	728	63.7	0
14	728	63.8	0
14	728	63.9	0
14	728	64	0
14	728	64.1	0
14	728	64.2	0
14	728	64.3	0
14	728	64.4	0
14	728	64.5	0
14	728	64.6	0
14	728	64.7	0
14	728	64.8	0
14	728	64.9	0
14	728	65	0
14	728	65.1	0
14	728	65.2	0
14	728	65.3	0
14	728	65.4	0
14	728	65.5	0
14	728	65.6	0
14	728	65.7	0
14	728	65.8	0
14	728	65.9	0
14	728	66	0
14	728	66.1	0
14	728	66.2	0
14	728	66.3	0
14	728	66.4	0
14	728	66.5	0
14	728	66.6	0
14	728	66.7	0
14	728	66.8	0
14	728	66.9	0
14	728	67	0
14	728	67.1	0
14	728	67.2	0
14	728	67.3	0
14	728	67.4	0
14	728	67.5	0
14	728	67.6	0
14	728	67.7	0
14	728	67.8	0
14	728	67.9	0
14	728	68	0
14	728	68.1	0
14	728	68.2	0
14	728	68.3	0
14	728	68.4	0
14	728	68.5	0
14	728	68.6	0
14	728	68.7	0
14	728	68.8	0
14	728	68.9	0
14	728	69	0
14	728	69.1	0
14	728	69.2	0
14	728	69.3	0
14	728	69.4	0
14	728	69.5	0
14	728	69.6	0
14	728	69.7	0
14	728	69.8	0
14	728	69.9	0
14	728	70	0
14	728	70.1	0
14	728	70.2	0
14	728	70.3	0
14	728	70.4	0
14	728	70.5	0
14	728	70.6	0
14	728	70.7	0
14	728	70.8	0
14	728	70.9	0
14	728	71	0
14	728	71.1	0
14	728	71.2	0
14	728	71.3	0
14	728	71.4	0
14	728	71.5	0
14	728	71.6	0
14	728	71.7	0
14	728	71.8	0
14	728	71.9	0
14	728	72	0
14	728	72.1	0
14	728	72.2	0
14	728	72.3	0
14	728	72.4	0
14	728	72.5	0
14	728	72.6	0
14	728	72.7	0
14	728	72.8	0
14	728	72.9	0
14	728	73	0
14	728	73.1	0
14	728	73.2	0
14	728	73.3	0
14	728	73.4	0
14	728	73.5	0
14	728	73.6	0
14	728	73.7	0
14	728	73.8	0
14	728	73.9	0
14	728	74	0
14	728	74.1	0
14	728	74.2	0
14	728	74.3	0
14	728	74.4	0
14	728	74.5	0
14	728	74.6	0
14	728	74.7	0
14	728	74.8	0
14	728	74.9	0
14	728	75	0
14	728	75.1	0
14	728	75.2	0
14	728	75.3	0
14	728	75.4	0
14	728	75.5	0
14	728	75.6	0
14	728	75.7	0
14	728	75.8	0
14	728	75.9	0
14	728	76	0
14	728	76.1	0
14	728	76.2	0
14	728	76.3	0
14	728	76.4	0
14	728	76.5	0
14	728	76.6	0
14	728	76.7	0
14	728	76.8	0
14	728	76.9	0
14	728	77	0
14	728	77.1	0
14	728	77.2	0
14	728	77.3	0
14	728	77.4	0
14	728	77.5	0
14	728	77.6	0
14	728	77.7	0
14	728	77.8	0
14	728	77.9	0
14	728	78	0
14	728	78.1	0
14	728	78.2	0
14	728	78.3	0
14	728	78.4	0
14	728	78.5	0
14	728	78.6	0
14	728	78.7	0
14	728	78.8	0
14	728	78.9	0
14	728	79	0
14	728	79.1	0
14	728	79.2	0
14	728	79.3	0
14	728	79.4	0
14	728	79.5	0
14	728	79.6	0
14	728	79.7	0
14	728	79.8	0
14	728	79.9	0
14	728	80	0
14	728	80.1	0
14	728	80.2	0
14	728	80.3	0
14	728	80.4	0
14	728	80.5	0
14	728	80.6	0
14	728	80.7	0
14	728	80.8	0
14	728	80.9	0
14	728	81	0
14	728	81.1	0
14	728	81.2	0
14	728	81.3	0
14	728	81.4	0
14	728	81.5	0
14	728	81.6	0
14	728	81.7	0
14	728	81.8	0
14	728	81.9	0
14	728	82	0
14	728	82.1	0
14	728	82.2	0
14	728	82.3	0
14	728	82.4	0
14	728	82.5	0
14	728	82.6	0
14	728	82.7	0
14	728	82.8	0
14	728	82.9	0
14	728	83	0
14	728	83.1	0
14	728	83.2	0
14	728	83.3	0
14	728	83.4	0
14	728	83.5	0
14	728	83.6	0
14	728	83.7	0
14	728	83.8	0
14	728	83.9	0
14	728	84	0
14	728	84.1	0
14	728	84.2	0
14	728	84.3	0
14	728	84.4	0
14	728	84.5	0
14	728	84.6	0
14	728	84.7	0
14	728	84.8	0
14	728	84.9	0
14	728	85	0
14	728	85.1	0
14	728	85.2	0
14	728	85.3	0
14	728	85.4	0
14	728	85.5	0
14	728	85.6	0
14	728	85.7	0
14	728	85.8	0
14	728	85.9	0
14	728	86	0
14	728	86.1	0
14	728	86.2	0
14	728	86.3	0
14	728	86.4	0
14	728	86.5	0
14	728	86.6	0
14	728	86.7	0
14	728	86.8	0
14	728	86.9	0
14	728	87	0
14	728	87.1	0
14	728	87.2	0
14	728	87.3	0
14	728	87.4	0
14	728	87.5	0
14	728	87.6	0
14	728	87.7	0
14	728	87.8	0
14	728	87.9	0
14	728	88	0
14	728	88.1	0
14	728	88.2	0
14	728	88.3	0
14	728	88.4	0
14	728	88.5	0
14	728	88.6	0
14	728	88.7	0
14	728	88.8	0
14	728	88.9	0
14	728	89	0
14	728	89.1	0
14	728	89.2	0
14	728	89.3	0
14	728	89.4	0
14	728	89.5	0
14	728	89.6	0
14	728	89.7	0
14	728	89.8	0
14	728	89.9	0
14	728	90	0
14	728	90.1	0
14	728	90.2	0
14	728	90.3	0
14	728	90.4	0
14	728	90.5	0
14	728	90.6	0
14	728	90.7	0
14	728	90.8	0
14	728	90.9	0
14	728	91	0
14	728	91.1	0
14	728	91.2	0
14	728	91.3	0
14	728	91.4	0
14	728	91.5	0
14	728	91.6	0
14	728	91.7	0
14	728	91.8	0
14	728	91.9	0
14	728	92	0
14	728	92.1	0
14	728	92.2	0
14	728	92.3	0
14	728	92.4	0
14	728	92.5	0
14	728	92.6	0
14	728	92.7	0
14	728	92.8	0
14	728	92.9	0
14	728	93	0
14	728	93.1	0
14	728	93.2	0
14	728	93.3	0
14	728	93.4	0
14	728	93.5	0
14	728	93.6	0
14	728	93.7	0
14	728	93.8	0
14	728	93.9	0
14	728	94	0
14	728	94.1	0
14	728	94.2	0
14	728	94.3	0
14	728	94.4	0
14	728	94.5	0
14	728	94.6	0
14	728	94.7	0
14	728	94.8	0
14	728	94.9	0
14	728	95	0
14	728	95.1	0
14	728	95.2	0
14	728	95.3	0
14	728	95.4	0
14	728	95.5	0
14	728	95.6	0
14	728	95.7	0
14	728	95.8	0
14	728	95.9	0
14	728	96	0
14	728	96.1	0
14	728	96.2	0
14	728	96.3	0
14	728	96.4	0
14	728	96.5	0
14	728	96.6	0
14	728	96.7	0
14	728	96.8	0
14	728	96.9	0
14	728	97	0
14	728	97.1	0
14	728	97.2	0
14	728	97.3	0
14	728	97.4	0
14	728	97.5	0
14	728	97.6	0
14	728	97.7	0
14	728	97.8	0
14	728	97.9	0
14	728	98	0
14	728	98.1	0
14	728	98.2	0
14	728	98.3	0
14	728	98.4	0
14	728	98.5	0
14	728	98.6	0
14	728	98.7	0
14	728	98.8	0
14	728	98.9	0
14	728	99	0
14	728	99.1	0
14	728	99.2	0
14	728	99.3	0
14	728	99.4	0
14	728	99.5	0
14	728	99.6	0
14	728	99.7	0
14	728	99.8	0
14	728	99.9	0
14	728	100	0
14	728	100.1	0
14	728	100.2	0
14	728	100.3	0
14	728	100.4	0
14	728	100.5	0
14	728	100.6	0
14	728	100.7	0
14	728	100.8	0
14	728	100.9	0
14	728	101	0
14	728	101.1	0
14	728	101.2	0
14	728	101.3	0
14	728	101.4	0
14	728	101.5	0
14	728	101.6	0
14	728	101.7	0
14	728	101.8	0
14	728	101.9	0
14	728	102	0
14	728	102.1	0
14	728	102.2	0
14	728	102.3	0
14	728	102.4	0
14	728	102.5	0
14	728	102.6	0
14	728	102.7	0
14	728	102.8	0
14	728	102.9	0
14	728	103	0
14	728	103.1	0
14	728	103.2	0
14	728	103.3	0
14	728	103.4	0
14	728	103.5	0
14	728	103.6	0
14	728	103.7	0
14	728	103.8	0
14	728	103.9	0
14	728	104	0
14	728	104.1	0
14	728	104.2	0
14	728	104.3	0
14	728	104.4	0
14	728	104.5	0
14	728	104.6	0
14	728	104.7	0
14	728	104.8	0
14	728	104.9	0
14	728	105	0
14	728	105.1	0
14	728	105.2	0
14	728	105.3	0
14	728	105.4	0
14	728	105.5	0
14	728	105.6	0
14	728	105.7	0
14	728	105.8	0
14	728	105.9	0
14	728	106	0
14	728	106.1	0
14	728	106.2	0
14	728	106.3	0
14	728	106.4	0
14	728	106.5	0
14	728	106.6	0
14	728	106.7	0
14	728	106.8	0
14	728	106.9	0
14	728	107	0
14	728	107.1	0
14	728	107.2	0
14	728	107.3	0
14	728	107.4	0
14	728	107.5	0
14	728	107.6	0
14	728	107.7	0
14	728	107.8	0
14	728	107.9	0
14	728	108	0
14	728	108.1	0
14	728	108.2	0
14	728	108.3	0
14	728	108.4	0
14	728	108.5	0
14	728	108.6	0
14	728	108.7	0
14	728	108.8	0
14	728	108.9	0
14	728	109	0
14	728	109.1	0
14	728	109.2	0
14	728	109.3	0
14	728	109.4	0
14	728	109.5	0
14	728	109.6	0
14	728	109.7	0
14	728	109.8	0
14	728	109.9	0
14	728	110	0
14	728	110.1	0
14	728	110.2	0
14	728	110.3	0
14	728	110.4	0
14	728	110.5	0
14	728	110.6	0
14	728	110.7	0
14	728	110.8	0
14	728	110.9	0
14	728	111	0
14	728	111.1	0
14	728	111.2	0
14	728	111.3	0
14	728	111.4	0
14	728	111.5	0
14	728	111.6	0
14	728	111.7	0
14	728	111.8	0
14	728	111.9	0
14	728	112	0
14	728	112.1	0
14	728	112.2	0
14	728	112.3	0
14	728	112.4	0
14	728	112.5	0
14	728	112.6	0
14	728	112.7	0
14	728	112.8	0
14	728	112.9	0
14	728	113	0
14	728	113.1	0
14	728	113.2	0
14	728	113.3	0
14	728	113.4	0
14	728	113.5	0
14	728	113.6	0
14	728	113.7	0
14	728	113.8	0
14	728	113.9	0
14	728	114	0
14	728	114.1	0
14	728	114.2	0
14	728	114.3	0
14	728	114.4	0
14	728	114.5	0
14	728	114.6	0
14	728	114.7	0
14	728	114.8	0
14	728	114.9	0
14	728	115	0
14	728	115.1	0
14	728	115.2	0
14	728	115.3	0
14	728	115.4	0
14	728	115.5	0
14	728	115.6	0
14	728	115.7	0
14	728	115.8	0
14	728	115.9	0
14	728	116	0
14	728	116.1	0
14	728	116.2	0
14	728	116.3	0
14	728	116.4	0
14	728	116.5	0
14	728	116.6	0
14	728	116.7	0
14	728	116.8	0
14	728	116.9	0
14	728	117	0
14	728	117.1	0
14	728	117.2	0
14	728	117.3	0
14	728	117.4	0
14	728	117.5	0
14	728	117.6	0
14	728	117.7	0
14	728	117.8	0
14	728	117.9	0
14	728	118	0
14	728	118.1	0
14	728	118.2	0
14	728	118.3	0
14	728	118.4	0
14	728	118.5	0
14	728	118.6	0
14	728	118.7	0
14	728	118.8	0
14	728	118.9	0
14	728	119	0
14	728	119.1	0
14	728	119.2	0
14	728	119.3	0
14	728	119.4	0
14	728	119.5	0
14	728	119.6	0
14	728	119.7	0
14	728	119.8	0
14	728	119.9	0
14	728	120	0
14	728	120.1	0
14	728	120.2	0
14	728	120.3	0
14	728	120.4	0
14	728	120.5	0
14	728	120.6	0
14	728	120.7	0
14	728	120.8	0
14	728	120.9	0
14	728	121	0
14	728	121.1	0
14	728	121.2	0
14	728	121.3	0
14	728	121.4	0
14	728	121.5	0
14	728	121.6	0
14	728	121.7	0
14	728	121.8	0
14	728	121.9	0
14	728	122	0
14	728	122.1	0
14	728	122.2	0
14	728	122.3	0
14	728	122.4	0
14	728	122.5	0
14	728	122.6	0
14	728	122.7	0
14	728	122.8	0
14	728	122.9	0
14	728	123	0
14	728	123.1	0
14	728	123.2	0
14	728	123.3	0
14	728	123.4	0
14	728	123.5	0
14	728	123.6	0
14	728	123.7	0
14	728	123.8	0
14	728	123.9	0
14	728	124	0
14	728	124.1	0
14	728	124.2	0
14	728	124.3	0
14	728	124.4	0
14	728	124.5	0
14	728	124.6	0
14	728	124.7	0
14	728	124.8	0
14	728	124.9	0
14	728	125	0
14	728	125.1	0
14	728	125.2	0
14	728	125.3	0
14	728	125.4	0
14	728	125.5	0
14	728	125.6	0
14	728	125.7	0
14	728	125.8	0
14	728	125.9	0
14	728	126	0
14	728	126.1	0
14	728	126.2	0
14	728	126.3	0
14	728	126.4	0
14	728	126.5	0
14	728	126.6	0
14	728	126.7	0
14	728	126.8	0
14	728	126.9	0
14	728	127	0
14	728	127.1	0
14	728	127.2	0
14	728	127.3	0
14	728	127.4	0
14	728	127.5	0
14	728	127.6	0
14	728	127.7	0
14	728	127.8	0
14	728	127.9	0
14	728	128	0
14	728	128.1	0
14	728	128.2	0
14	728	128.3	0
14	728	128.4	0
14	728	128.5	0
14	728	128.6	0
14	728	128.7	0
14	728	128.8	0
14	728	128.9	0
14	728	129	0
14	728	129.1	0
14	728	129.2	0
14	728	129.3	0
14	728	129.4	0
14	728	129.5	0
14	728	129.6	0
14	728	129.7	0
14	728	129.8	0
14	728	129.9	0
14	728	130	0
14	728	130.1	0
14	728	130.2	0
14	728	130.3	0
14	728	130.4	0
14	728	130.5	0
14	728	130.6	0
14	728	130.7	0
14	728	130.8	0
14	728	130.9	0
14	728	131	0
14	728	131.1	0
14	728	131.2	0
14	728	131.3	0
14	728	131.4	0
14	728	131.5	0
14	728	131.6	0
14	728	131.7	0
14	728	131.8	0
14	728	131.9	0
14	728	132	0
14	728	132.1	0
14	728	132.2	0
14	728	132.3	0
14	728	132.4	0
14	728	132.5	0
14	728	132.6	0
14	728	132.7	0
14	728	132.8	0
14	728	132.9	0
14	728	133	0
14	728	133.1	0
14	728	133.2	0
14	728	133.3	0
14	728	133.4	0
14	728	133.5	0
14	728	133.6	0
14	728	133.7	0
14	728	133.8	0
14	728	133.9	0
14	728	134	0
14	728	134.1	0
14	728	134.2	0
14	728	134.3	0
14	728	134.4	0
14	728	134.5	0
14	728	134.6	0
14	728	134.7	0
14	728	134.8	0
14	728	134.9	0
14	728	135	0
14	728	135.1	0
14	728	135.2	0
14	728	135.3	0
14	728	135.4	0
14	728	135.5	0
14	728	135.6	0
14	728	135.7	0
14	728	135.8	0
14	728	135.9	0
14	728	136	0
14	728	136.1	0
14	728	136.2	0
14	728	136.3	0
14	728	136.4	0
14	728	136.5	0
14	728	136.6	0
14	728	136.7	0
14	728	136.8	0
14	728	136.9	0
14	728	137	0
14	728	137.1	0
14	728	137.2	0
14	728	137.3	0
14	728	137.4	0
14	728	137.5	0
14	728	137.6	0
14	728	137.7	0
14	728	137.8	0
14	728	137.9	0
14	728	138	0
14	728	138.1	0
14	728	138.2	0
14	728	138.3	0
14	728	138.4	0
14	728	138.5	0
14	728	138.6	0
14	728	138.7	0
14	728	138.8	0
14	728	138.9	0
14	728	139	0
14	728	139.1	0
14	728	139.2	0
14	728	139.3	0
14	728	139.4	0
14	728	139.5	0
14	728	139.6	0
14	728	139.7	0
14	728	139.8	0
14	728	139.9	0
14	728	140	0
14	728	140.1	0
14	728	140.2	0
14	728	140.3	0
14	728	140.4	0
14	728	140.5	0
14	728	140.6	0
14	728	140.7	0
14	728	140.8	0
14	728	140.9	0
14	728	141	0
14	728	141.1	0
14	728	141.2	0
14	728	141.3	0
14	728	141.4	0
14	728	141.5	0
14	728	141.6	0
14	728	141.7	0
14	728	141.8	0
14	728	141.9	0
14	728	142	0
14	728	142.1	0
14	728	142.2	0
14	728	142.3	0
14	728	142.4	0
14	728	142.5	0
14	728	142.6	0
14	728	142.7	0
14	728	142.8	0
14	728	142.9	0
14	728	143	0
14	728	143.1	0
14	728	143.2	0
14	728	143.3	0
14	728	143.4	0
14	728	143.5	0
14	728	143.6	0
14	728	143.7	0
14	728	143.8	0
14	728	143.9	0
14	728	144	0
14	728	144.1	0
14	728	144.2	0
14	728	144.3	0
14	728	144.4	0
14	728	144.5	0
14	728	144.6	0
14	728	144.7	0
14	728	144.8	0
14	728	144.9	0
14	728	145	0
14	728	145.1	0
14	728	145.2	0
14	728	145.3	0
14	728	145.4	0
14	728	145.5	0
14	728	145.6	0
14	728	145.7	0
14	728	145.8	0
14	728	145.9	0
14	728	146	0
14	728	146.1	0
14	728	146.2	0
14	728	146.3	0
14	728	146.4	0
14	728	146.5	0
14	728	146.6	0
14	728	146.7	0
14	728	146.8	0
14	728	146.9	0
14	728	147	0
14	728	147.1	0
14	728	147.2	0
14	728	147.3	0
14	728	147.4	0
14	728	147.5	0
14	728	147.6	0
14	728	147.7	0
14	728	147.8	0
14	728	147.9	0
14	728	148	0
14	728	148.1	0
14	728	148.2	0
14	728	148.3	0
14	728	148.4	0
14	728	148.5	0
14	728	148.6	0
14	728	148.7	0
14	728	148.8	0
14	728	148.9	0
14	728	149	0
14	728	149.1	0
14	728	149.2	0
14	728	149.3	0
14	728	149.4	0
14	728	149.5	0
14	728	149.6	0
14	728	149.7	0
14	728	149.8	0
14	728	149.9	0
14	728	150	0
14	728	150.1	0
14	728	150.2	0
14	728	150.3	0
14	728	150.4	0
14	728	150.5	0
14	728	150.6	0
14	728	150.7	0
14	728	150.8	0
14	728	150.9	0
14	728	151	0
14	728	151.1	0
14	728	151.2	0
14	728	151.3	0
14	728	151.4	0
14	728	151.5	0
14	728	151.6	0
14	728	151.7	0
14	728	151.8	0
14	728	151.9	0
14	728	152	0
14	728	152.1	0
14	728	152.2	0
14	728	152.3	0
14	728	152.4	0
14	728	152.5	0
14	728	152.6	0
14	728	152.7	0
14	728	152.8	0
14	728	152.9	0
14	728	153	0
14	728	153.1	0
14	728	153.2	0
14	728	153.3	0
14	728	153.4	0
14	728	153.5	0
14	728	153.6	0
14	728	153.7	0
14	728	153.8	0
14	728	153.9	0
14	728	154	0
14	728	154.1	0
14	728	154.2	0
14	728	154.3	0
14	728	154.4	0
14	728	154.5	0
14	728	154.6	0
14	728	154.7	0
14	728	154.8	0
14	728	154.9	0
14	728	155	0
14	728	155.1	0
14	728	155.2	0
14	728	155.3	0
14	728	155.4	0
14	728	155.5	0
14	728	155.6	0
14	728	155.7	0
14	728	155.8	0
14	728	155.9	0
14	728	156	0
14	728	156.1	0
14	728	156.2	0
14	728	156.3	0
14	728	156.4	0
14	728	156.5	0
14	728	156.6	0
14	728	156.7	0
14	728	156.8	0
14	728	156.9	0
14	728	157	0
14	728	157.1	0
14	728	157.2	0
14	728	157.3	0
14	728	157.4	0
14	728	157.5	0
14	728	157.6	0
14	728	157.7	0
14	728	157.8	0
14	728	157.9	0
14	728	158	0
14	728	158.1	0
14	728	158.2	0
14	728	158.3	0
14	728	158.4	0
14	728	158.5	0
14	728	158.6	0
14	728	158.7	0
14	728	158.8	0
14	728	158.9	0
14	728	159	0
14	728	159.1	0
14	728	159.2	0
14	728	159.3	0
14	728	159.4	0
14	728	159.5	0
14	728	159.6	0
14	728	159.7	0
14	728	159.8	0
14	728	159.9	0
14	728	160	0
14	728	160.1	0
14	728	160.2	0
14	728	160.3	0
14	728	160.4	0
14	728	160.5	0
14	728	160.6	0
14	728	160.7	0
14	728	160.8	0
14	728	160.9	0
14	728	161	0
14	728	161.1	0
14	728	161.2	0
14	728	161.3	0
14	728	161.4	0
14	728	161.5	0
14	728	161.6	0
14	728	161.7	0
14	728	161.8	0
14	728	161.9	0
14	728	162	0
14	728	162.1	0
14	728	162.2	0
14	728	162.3	0
14	728	162.4	0
14	728	162.5	0
14	728	162.6	0
14	728	162.7	0
14	728	162.8	0
14	728	162.9	0
14	728	163	0
14	728	163.1	0
14	728	163.2	0
14	728	163.3	0
14	728	163.4	0
14	728	163.5	0
14	728	163.6	0
14	728	163.7	0
14	728	163.8	0
14	728	163.9	0
14	728	164	0
14	728	164.1	0
14	728	164.2	0
14	728	164.3	0
14	728	164.4	0
14	728	164.5	0
14	728	164.6	0
14	728	164.7	0
14	728	164.8	0
14	728	164.9	0
14	728	165	0
14	728	165.1	0
14	728	165.2	0
14	728	165.3	0
14	728	165.4	0
14	728	165.5	0
14	728	165.6	0
14	728	165.7	0
14	728	165.8	0
14	728	165.9	0
14	728	166	0
14	728	166.1	0
14	728	166.2	0
14	728	166.3	0
14	728	166.4	0
14	728	166.5	0
14	728	166.6	0
14	728	166.7	0
14	728	166.8	0
14	728	166.9	0
14	728	167	0
14	728	167.1	0
14	728	167.2	0
14	728	167.3	0
14	728	167.4	0
14	728	167.5	0
14	728	167.6	0
14	728	167.7	0
14	728	167.8	0
14	728	167.9	0
14	728	168	0
14	728	168.1	0
14	728	168.2	0
14	728	168.3	0
14	728	168.4	0
14	728	168.5	0
14	728	168.6	0
14	728	168.7	0
14	728	168.8	0
14	728	168.9	0
14	728	169	0
14	728	169.1	0
14	728	169.2	0
14	728	169.3	0
14	728	169.4	0
14	728	169.5	0
14	728	169.6	0
14	728	169.7	0
14	728	169.8	0
14	728	169.9	0
14	728	170	0
14	728	170.1	0
14	728	170.2	0
14	728	170.3	0
14	728	170.4	0
14	728	170.5	0
14	728	170.6	0
14	728	170.7	0
14	728	170.8	0
14	728	170.9	0
14	728	171	0
14	728	171.1	0
14	728	171.2	0
14	728	171.3	0
14	728	171.4	0
14	728	171.5	0
14	728	171.6	0
14	728	171.7	0
14	728	171.8	0
14	728	171.9	0
14	728	172	0
14	728	172.1	0
14	728	172.2	0
14	728	172.3	0
14	728	172.4	0
14	728	172.5	0
14	728	172.6	0
14	728	172.7	0
14	728	172.8	0
14	728	172.9	0
14	728	173	0
14	728	173.1	0
14	728	173.2	0
14	728	173.3	0
14	728	173.4	0
14	728	173.5	0
14	728	173.6	0
14	728	173.7	0
14	728	173.8	0
14	728	173.9	0
14	728	174	0
14	728	174.1	0
14	728	174.2	0
14	728	174.3	0
14	728	174.4	0
14	728	174.5	0
14	728	174.6	0
14	728	174.7	0
14	728	174.8	0
14	728	174.9	0
14	728	175	0
14	728	175.1	0
14	728	175.2	0
14	728	175.3	0
14	728	175.4	0
14	728	175.5	0
14	728	175.6	0
14	728	175.7	0
14	728	175.8	0
14	728	175.9	0
14	728	176	0
14	728	176.1	0
14	728	176.2	0
14	728	176.3	0
14	728	176.4	0
14	728	176.5	0
14	728	176.6	0
14	728	176.7	0
14	728	176.8	0
14	728	176.9	0
14	728	177	0
14	728	177.1	0
14	728	177.2	0
14	728	177.3	0
14	728	177.4	0
14	728	177.5	0
14	728	177.6	0
14	728	177.7	0
14	728	177.8	0
14	728	177.9	0
14	728	178	0
14	728	178.1	0
14	728	178.2	0
14	728	178.3	0
14	728	178.4	0
14	728	178.5	0
14	728	178.6	0
14	728	178.7	0
14	728	178.8	0
14	728	178.9	0
14	728	179	0
14	728	179.1	0
14	728	179.2	0
14	728	179.3	0
14	728	179.4	0
14	728	179.5	0
14	728	179.6	0
14	728	179.7	0
14	728	179.8	0
14	728	179.9	0
14	728	180	0
14	728	180.1	0
14	728	180.2	0
14	728	180.3	0
14	728	180.4	0
14	728	180.5	0
14	728	180.6	0
14	728	180.7	0
14	728	180.8	0
14	728	180.9	0
14	728	181	0
14	728	181.1	0
14	728	181.2	0
14	728	181.3	0
14	728	181.4	0
14	728	181.5	0
14	728	181.6	0
14	728	181.7	0
14	728	181.8	0
14	728	181.9	0
14	728	182	0
14	728	182.1	0
14	728	182.2	0
14	728	182.3	0
14	728	182.4	0
14	728	182.5	0
14	728	182.6	0
14	728	182.7	0
14	728	182.8	0
14	728	182.9	0
14	728	183	0
14	728	183.1	0
14	728	183.2	0
14	728	183.3	0
14	728	183.4	0
14	728	183.5	0
14	728	183.6	0
14	728	183.7	0
14	728	183.8	0
14	728	183.9	0
14	728	184	0
14	728	184.1	0
14	728	184.2	0
14	728	184.3	0
14	728	184.4	0
14	728	184.5	0
14	728	184.6	0
14	728	184.7	0
14	728	184.8	0
14	728	184.9	0
14	728	185	0
14	728	185.1	0
14	728	185.2	0
14	728	185.3	0
14	728	185.4	0
14	728	185.5	0
14	728	185.6	0
14	728	185.7	0
14	728	185.8	0
14	728	185.9	0
14	728	186	0
14	728	186.1	0
14	728	186.2	0
14	728	186.3	0
14	728	186.4	0
14	728	186.5	0
14	728	186.6	0
14	728	186.7	0
14	728	186.8	0
14	728	186.9	0
14	728	187	0
14	728	187.1	0
14	728	187.2	0
14	728	187.3	0
14	728	187.4	0
14	728	187.5	0
14	728	187.6	0
14	728	187.7	0
14	728	187.8	0
14	728	187.9	0
14	728	188	0
14	728	188.1	0
14	728	188.2	0
14	728	188.3	0
14	728	188.4	0
14	728	188.5	0
14	728	188.6	0
14	728	188.7	0
14	728	188.8	0
14	728	188.9	0
14	728	189	0
14	728	189.1	0
14	728	189.2	0
14	728	189.3	0
14	728	189.4	0
14	728	189.5	0
14	728	189.6	0
14	728	189.7	0
14	728	189.8	0
14	728	189.9	0
14	728	190	0
14	728	190.1	0
14	728	190.2	0
14	728	190.3	0
14	728	190.4	0
14	728	190.5	0
14	728	190.6	0
14	728	190.7	0
14	728	190.8	0
14	728	190.9	0
14	728	191	0
14	728	191.1	0
14	728	191.2	0
14	728	191.3	0
14	728	191.4	0
14	728	191.5	0
14	728	191.6	0
14	728	191.7	0
14	728	191.8	0
14	728	191.9	0
14	728	192	0
14	728	192.1	0
14	728	192.2	0
14	728	192.3	0
14	728	192.4	0
14	728	192.5	0
14	728	192.6	0
14	728	192.7	0
14	728	192.8	0
14	728	192.9	0
14	728	193	0
14	728	193.1	0
14	728	193.2	0
14	728	193.3	0
14	728	193.4	0
14	728	193.5	0
14	728	193.6	0
14	728	193.7	0
14	728	193.8	0
14	728	193.9	0
14	728	194	0
14	728	194.1	0
14	728	194.2	0
14	728	194.3	0
14	728	194.4	0
14	728	194.5	0
14	728	194.6	0
14	728	194.7	0
14	728	194.8	0
14	728	194.9	0
14	728	195	0
14	728	195.1	0
14	728	195.2	0
14	728	195.3	0
14	728	195.4	0
14	728	195.5	0
14	728	195.6	0
14	728	195.7	0
14	728	195.8	0
14	728	195.9	0
14	728	196	0
14	728	196.1	0
14	728	196.2	0
14	728	196.3	0
14	728	196.4	0
14	728	196.5	0
14	728	196.6	0
14	728	196.7	0
14	728	196.8	0
14	728	196.9	0
14	728	197	0
14	728	197.1	0
14	728	197.2	0
14	728	197.3	0
14	728	197.4	0
14	728	197.5	0
14	728	197.6	0
14	728	197.7	0
14	728	197.8	0
14	728	197.9	0
14	728	198	0
14	728	198.1	0
14	728	198.2	0
14	728	198.3	0
14	728	198.4	0
14	728	198.5	0
14	728	198.6	0
14	728	198.7	0
14	728	198.8	0
14	728	198.9	0
14	728	199	0
14	728	199.1	0
14	728	199.2	0
14	728	199.3	0
14	728	199.4	0
14	728	199.5	0
14	728	199.6	0
14	728	199.7	0
14	728	199.8	0
14	728	199.9	0
14	728	200	0
14	728	200.1	0
14	728	200.2	0
14	728	200.3	0
14	728	200.4	0
14	728	200.5	0
14	728	200.6	0
14	728	200.7	0
14	728	200.8	0
14	728	200.9	0
14	728	201	0
14	728	201.1	0
14	728	201.2	0
14	728	201.3	0
14	728	201.4	0
14	728	201.5	0
14	728	201.6	0
14	728	201.7	0
14	728	201.8	0
14	728	201.9	0
14	728	202	0
14	728	202.1	0
14	728	202.2	0
14	728	202.3	0
14	728	202.4	0
14	728	202.5	0
14	728	202.6	0
14	728	202.7	0
14	728	202.8	0
14	728	202.9	0
14	728	203	0
14	728	203.1	0
14	728	203.2	0
14	728	203.3	0
14	728	203.4	0
14	728	203.5	0
14	728	203.6	0
14	728	203.7	0
14	728	203.8	0
14	728	203.9	0
14	728	204	0
14	728	204.1	0
14	728	204.2	0
14	728	204.3	0
14	728	204.4	0
14	728	204.5	0
14	728	204.6	0
14	728	204.7	0
14	728	204.8	0
14	728	204.9	0
14	728	205	0
14	728	205.1	0
14	728	205.2	0
14	728	205.3	0
14	728	205.4	0
14	728	205.5	0
14	728	205.6	0
14	728	205.7	0
14	728	205.8	0
14	728	205.9	0
14	728	206	0
14	728	206.1	0
14	728	206.2	0
14	728	206.3	0
14	728	206.4	0
14	728	206.5	0
14	728	206.6	0
14	728	206.7	0
14	728	206.8	0
14	728	206.9	0
14	728	207	0
14	728	207.1	0
14	728	207.2	0
14	728	207.3	0
14	728	207.4	0
14	728	207.5	0
14	728	207.6	0
14	728	207.7	0
14	728	207.8	0
14	728	207.9	0
14	728	208	0
14	728	208.1	0
14	728	208.2	0
14	728	208.3	0
14	728	208.4	0
14	728	208.5	0
14	728	208.6	0
14	728	208.7	0
14	728	208.8	0
14	728	208.9	0
14	728	209	0
14	728	209.1	0
14	728	209.2	0
14	728	209.3	0
14	728	209.4	0
14	728	209.5	0
14	728	209.6	0
14	728	209.7	0
14	728	209.8	0
14	728	209.9	0
14	728	210	0
14	728	210.1	0
14	728	210.2	0
14	728	210.3	0
14	728	210.4	0
14	728	210.5	0
14	728	210.6	0
14	728	210.7	0
14	728	210.8	0
14	728	210.9	0
14	728	211	0
14	728	211.1	0
14	728	211.2	0
14	728	211.3	0
14	728	211.4	0
14	728	211.5	0
14	728	211.6	0
14	728	211.7	0
14	728	211.8	0
14	728	211.9	0
14	728	212	0
14	728	212.1	0
14	728	212.2	0
14	728	212.3	0
14	728	212.4	0
14	728	212.5	0
14	728	212.6	0
14	728	212.7	0
14	728	212.8	0
14	728	212.9	0
14	728	213	0
14	728	213.1	0
14	728	213.2	0
14	728	213.3	0
14	728	213.4	0
14	728	213.5	0
14	728	213.6	0
14	728	213.7	0
14	728	213.8	0
14	728	213.9	0
14	728	214	0
14	728	214.1	0
14	728	214.2	0
14	728	214.3	0
14	728	214.4	0
14	728	214.5	0
14	728	214.6	0
14	728	214.7	0
14	728	214.8	0
14	728	214.9	0
14	728	215	0
14	728	215.1	0
14	728	215.2	0
14	728	215.3	0
14	728	215.4	0
14	728	215.5	0
14	728	215.6	0
14	728	215.7	0
14	728	215.8	0
14	728	215.9	0
14	728	216	0
14	728	216.1	0
14	728	216.2	0
14	728	216.3	0
14	728	216.4	0
14	728	216.5	0
14	728	216.6	0
14	728	216.7	0
14	728	216.8	0
14	728	216.9	0
14	728	217	0
14	728	217.1	0
14	728	217.2	0
14	728	217.3	0
14	728	217.4	0
14	728	217.5	0
14	728	217.6	0
14	728	217.7	0
14	728	217.8	0
14	728	217.9	0
14	728	218	0
14	728	218.1	0
14	728	218.2	0
14	728	218.3	0
14	728	218.4	0
14	728	218.5	0
14	728	218.6	0
14	728	218.7	0
14	728	218.8	0
14	728	218.9	0
14	728	219	0
14	728	219.1	0
14	728	219.2	0
14	728	219.3	0
14	728	219.4	0
14	728	219.5	0
14	728	219.6	0
14	728	219.7	0
14	728	219.8	0
14	728	219.9	0
14	728	220	0
14	728	220.1	0
14	728	220.2	0
14	728	220.3	0
14	728	220.4	0
14	728	220.5	0
14	728	220.6	0
14	728	220.7	0
14	728	220.8	0
14	728	220.9	0
14	728	221	0
14	728	221.1	0
14	728	221.2	0
14	728	221.3	0
14	728	221.4	0
14	728	221.5	0
14	728	221.6	0
14	728	221.7	0
14	728	221.8	0
14	728	221.9	0
14	728	222	0
14	728	222.1	0
14	728	222.2	0
14	728	222.3	0
14	728	222.4	0
14	728	222.5	0
14	728	222.6	0
14	728	222.7	0
14	728	222.8	0
14	728	222.9	0
14	728	223	0
14	728	223.1	0
14	728	223.2	0
14	728	223.3	0
14	728	223.4	0
14	728	223.5	0
14	728	223.6	0
14	728	223.7	0
14	728	223.8	0
14	728	223.9	0
14	728	224	0
14	728	224.1	0
14	728	224.2	0
14	728	224.3	0
14	728	224.4	0
14	728	224.5	0
14	728	224.6	0
14	728	224.7	0
14	728	224.8	0
14	728	224.9	0
14	728	225	0
14	728	225.1	0
14	728	225.2	0
14	728	225.3	0
14	728	225.4	0
14	728	225.5	0
14	728	225.6	0
14	728	225.7	0
14	728	225.8	0
14	728	225.9	0
14	728	226	0
14	728	226.1	0
14	728	226.2	0
14	728	226.3	0
14	728	226.4	0
14	728	226.5	0
14	728	226.6	0
14	728	226.7	0
14	728	226.8	0
14	728	226.9	0
14	728	227	0
14	728	227.1	0
14	728	227.2	0
14	728	227.3	0
14	728	227.4	0
14	728	227.5	0
14	728	227.6	0
14	728	227.7	0
14	728	227.8	0
14	728	227.9	0
14	728	228	0
14	728	228.1	0
14	728	228.2	0
14	728	228.3	0
14	728	228.4	0
14	728	228.5	0
14	728	228.6	0
14	728	228.7	0
14	728	228.8	0
14	728	228.9	0
14	728	229	0
14	728	229.1	0
14	728	229.2	0
14	728	229.3	0
14	728	229.4	0
14	728	229.5	0
14	728	229.6	0
14	728	229.7	0
14	728	229.8	0
14	728	229.9	0
14	728	230	0
14	728	230.1	0
14	728	230.2	0
14	728	230.3	0
14	728	230.4	0
14	728	230.5	0
14	728	230.6	0
14	728	230.7	0
14	728	230.8	0
14	728	230.9	0
14	728	231	0
14	728	231.1	0
14	728	231.2	0
14	728	231.3	0
14	728	231.4	0
14	728	231.5	0
14	728	231.6	0
14	728	231.7	0
14	728	231.8	0
14	728	231.9	0
14	728	232	0
14	728	232.1	0
14	728	232.2	0
14	728	232.3	0
14	728	232.4	0
14	728	232.5	0
14	728	232.6	0
14	728	232.7	0
14	728	232.8	0
14	728	232.9	0
14	728	233	0
14	728	233.1	0
14	728	233.2	0
14	728	233.3	0
14	728	233.4	0
14	728	233.5	0
14	728	233.6	0
14	728	233.7	0
14	728	233.8	0
14	728	233.9	0
14	728	234	0
14	728	234.1	0
14	728	234.2	0
14	728	234.3	0
14	728	234.4	0
14	728	234.5	0
14	728	234.6	0
14	728	234.7	0
14	728	234.8	0
14	728	234.9	0
14	728	235	0
14	728	235.1	0
14	728	235.2	0
14	728	235.3	0
14	728	235.4	0
14	728	235.5	0
14	728	235.6	0
14	728	235.7	0
14	728	235.8	0
14	728	235.9	0
14	728	236	0
14	728	236.1	0
14	728	236.2	0
14	728	236.3	0
14	728	236.4	0
14	728	236.5	0
14	728	236.6	0
14	728	236.7	0
14	728	236.8	0
14	728	236.9	0
14	728	237	0
14	728	237.1	0
14	728	237.2	0
14	728	237.3	0
14	728	237.4	0
14	728	237.5	0
14	728	237.6	0
14	728	237.7	0
14	728	237.8	0
14	728	237.9	0
14	728	238	0
14	728	238.1	0
14	728	238.2	0
14	728	238.3	0
14	728	238.4	0
14	728	238.5	0
14	728	238.6	0
14	728	238.7	0
14	728	238.8	0
14	728	238.9	0
14	728	239	0
14	728	239.1	0
14	728	239.2	0
14	728	239.3	0
14	728	239.4	0
14	728	239.5	0
14	728	239.6	0
14	728	239.7	0
14	728	239.8	0
14	728	239.9	0
14	728	240	0
14	728	240.1	0
14	728	240.2	0
14	728	240.3	0
14	728	240.4	0
14	728	240.5	0
14	728	240.6	0
14	728	240.7	0
14	728	240.8	0
14	728	240.9	0
14	728	241	0
14	728	241.1	0
14	728	241.2	0
14	728	241.3	0
14	728	241.4	0
14	728	241.5	0
14	728	241.6	0
14	728	241.7	0
14	728	241.8	0
14	728	241.9	0
14	728	242	0
14	728	242.1	0
14	728	242.2	0
14	728	242.3	0
14	728	242.4	0
14	728	242.5	0
14	728	242.6	0
14	728	242.7	0
14	728	242.8	0
14	728	242.9	0
14	728	243	0
14	728	243.1	0
14	728	243.2	0
14	728	243.3	0
14	728	243.4	0
14	728	243.5	0
14	728	243.6	0
14	728	243.7	0
14	728	243.8	0
14	728	243.9	0
14	728	244	0
14	728	244.1	0
14	728	244.2	0
14	728	244.3	0
14	728	244.4	0
14	728	244.5	0
14	728	244.6	0
14	728	244.7	0
14	728	244.8	0
14	728	244.9	0
14	728	245	0
14	728	245.1	0
14	728	245.2	0
14	728	245.3	0
14	728	245.4	0
14	728	245.5	0
14	728	245.6	0
14	728	245.7	0
14	728	245.8	0
14	728	245.9	0
14	728	246	0
14	728	246.1	0
14	728	246.2	0
14	728	246.3	0
14	728	246.4	0
14	728	246.5	0
14	728	246.6	0
14	728	246.7	0
14	728	246.8	0
14	728	246.9	0
14	728	247	0
14	728	247.1	0
14	728	247.2	0
14	728	247.3	0
14	728	247.4	0
14	728	247.5	0
14	728	247.6	0
14	728	247.7	0
14	728	247.8	0
14	728	247.9	0
14	728	248	0
14	728	248.1	0
14	728	248.2	0
14	728	248.3	0
14	728	248.4	0
14	728	248.5	0
14	728	248.6	0
14	728	248.7	0
14	728	248.8	0
14	728	248.9	0
14	728	249	0
14	728	249.1	0
14	728	249.2	0
14	728	249.3	0
14	728	249.4	0
14	728	249.5	0
14	728	249.6	0
14	728	249.7	0
14	728	249.8	0
14	728	249.9	0
14	728	250	0
14	728	250.1	0
14	728	250.2	0
14	728	250.3	0
14	728	250.4	0
14	728	250.5	0
14	728	250.6	0
14	728	250.7	0
14	728	250.8	0
14	728	250.9	0
14	728	251	0
14	728	251.1	0
14	728	251.2	0
14	728	251.3	0
14	728	251.4	0
14	728	251.5	0
14	728	251.6	0
14	728	251.7	0
14	728	251.8	0
14	728	251.9	0
14	728	252	0
14	728	252.1	0
14	728	252.2	0
14	728	252.3	0
14	728	252.4	0
14	728	252.5	0
14	728	252.6	0
14	728	252.7	0
14	728	252.8	0
14	728	252.9	0
14	728	253	0
14	728	253.1	0
14	728	253.2	0
14	728	253.3	0
14	728	253.4	0
14	728	253.5	0
14	728	253.6	0
14	728	253.7	0
14	728	253.8	0
14	728	253.9	0
14	728	254	0
14	728	254.1	0
14	728	254.2	0
14	728	254.3	0
14	728	254.4	0
14	728	254.5	0
14	728	254.6	0
14	728	254.7	0
14	728	254.8	0
14	728	254.9	0
14	728	255	0
14	728	255.1	0
14	728	255.2	0
14	728	255.3	0
14	728	255.4	0
14	728	255.5	0
14	728	255.6	0
14	728	255.7	0
14	728	255.8	0
14	728	255.9	0
14	728	256	0
14	728	256.1	0
14	728	256.2	0
14	728	256.3	0
14	728	256.4	0
14	728	256.5	0
14	728	256.6	0
14	728	256.7	0
14	728	256.8	0
14	728	256.9	0
14	728	257	0
14	728	257.1	0
14	728	257.2	0
14	728	257.3	0
14	728	257.4	0
14	728	257.5	0
14	728	257.6	0
14	728	257.7	0
14	728	257.8	0
14	728	257.9	0
14	728	258	0
14	728	258.1	0
14	728	258.2	0
14	728	258.3	0
14	728	258.4	0
14	728	258.5	0
14	728	258.6	0
14	728	258.7	0
14	728	258.8	0
14	728	258.9	0
14	728	259	0
14	728	259.1	0
14	728	259.2	0
14	728	259.3	0
14	728	259.4	0
14	728	259.5	0
14	728	259.6	0
14	728	259.7	0
14	728	259.8	0
14	728	259.9	0
14	728	260	0
14	728	260.1	0
14	728	260.2	0
14	728	260.3	0
14	728	260.4	0
14	728	260.5	0
14	728	260.6	0
14	728	260.7	0
14	728	260.8	0
14	728	260.9	0
14	728	261	0
14	728	261.1	0
14	728	261.2	0
14	728	261.3	0
14	728	261.4	0
14	728	261.5	0
14	728	261.6	0
14	728	261.7	0
14	728	261.8	0
14	728	261.9	0
14	728	262	0
14	728	262.1	0
14	728	262.2	0
14	728	262.3	0
14	728	262.4	0
14	728	262.5	0
14	728	262.6	0
14	728	262.7	0
14	728	262.8	0
14	728	262.9	0
14	728	263	0
14	728	263.1	0
14	728	263.2	0
14	728	263.3	0
14	728	263.4	0
14	728	263.5	0
14	728	263.6	0
14	728	263.7	0
14	728	263.8	0
14	728	263.9	0
14	728	264	0
14	728	264.1	0
14	728	264.2	0
14	728	264.3	0
14	728	264.4	0
14	728	264.5	0
14	728	264.6	0
14	728	264.7	0
14	728	264.8	0
14	728	264.9	0
14	728	265	0
14	728	265.1	0
14	728	265.2	0
14	728	265.3	0
14	728	265.4	0
14	728	265.5	0
14	728	265.6	0
14	728	265.7	0
14	728	265.8	0
14	728	265.9	0
14	728	266	0
14	728	266.1	0
14	728	266.2	0
14	728	266.3	0
14	728	266.4	0
14	728	266.5	0
14	728	266.6	0
14	728	266.7	0
14	728	266.8	0
14	728	266.9	0
14	728	267	0
14	728	267.1	0
14	728	267.2	0
14	728	267.3	0
14	728	267.4	0
14	728	267.5	0
14	728	267.6	0
14	728	267.7	0
14	728	267.8	0
14	728	267.9	0
14	728	268	0
14	728	268.1	0
14	728	268.2	0
14	728	268.3	0
14	728	268.4	0
14	728	268.5	0
14	728	268.6	0
14	728	268.7	0
14	728	268.8	0
14	728	268.9	0
14	728	269	0
14	728	269.1	0
14	728	269.2	0
14	728	269.3	0
14	728	269.4	0
14	728	269.5	0
14	728	269.6	0
14	728	269.7	0
14	728	269.8	0
14	728	269.9	0
14	728	270	0
14	728	270.1	0
14	728	270.2	0
14	728	270.3	0
14	728	270.4	0
14	728	270.5	0
14	728	270.6	0
14	728	270.7	0
14	728	270.8	0
14	728	270.9	0
14	728	271	0
14	728	271.1	0
14	728	271.2	0
14	728	271.3	0
14	728	271.4	0
14	728	271.5	0
14	728	271.6	0
14	728	271.7	0
14	728	271.8	0
14	728	271.9	0
14	728	272	0
14	728	272.1	0
14	728	272.2	0
14	728	272.3	0
14	728	272.4	0
14	728	272.5	0
14	728	272.6	0
14	728	272.7	0
14	728	272.8	0
14	728	272.9	0
14	728	273	0
14	728	273.1	0
14	728	273.2	0
14	728	273.3	0
14	728	273.4	0
14	728	273.5	0
14	728	273.6	0
14	728	273.7	0
14	728	273.8	0
14	728	273.9	0
14	728	274	0
14	728	274.1	0
14	728	274.2	0
14	728	274.3	0
14	728	274.4	0
14	728	274.5	0
14	728	274.6	0
14	728	274.7	0
14	728	274.8	0
14	728	274.9	0
14	728	275	0
14	728	275.1	0
14	728	275.2	0
14	728	275.3	0
14	728	275.4	0
14	728	275.5	0
14	728	275.6	0
14	728	275.7	0
14	728	275.8	0
14	728	275.9	0
14	728	276	0
14	728	276.1	0
14	728	276.2	0
14	728	276.3	0
14	728	276.4	0
14	728	276.5	0
14	728	276.6	0
14	728	276.7	0
14	728	276.8	0
14	728	276.9	0
14	728	277	0
14	728	277.1	0
14	728	277.2	0
14	728	277.3	0
14	728	277.4	0
14	728	277.5	0
14	728	277.6	0
14	728	277.7	0
14	728	277.8	0
14	728	277.9	0
14	728	278	0
14	728	278.1	0
14	728	278.2	0
14	728	278.3	0
14	728	278.4	0
14	728	278.5	0
14	728	278.6	0
14	728	278.7	0
14	728	278.8	0
14	728	278.9	0
14	728	279	0
14	728	279.1	0
14	728	279.2	0
14	728	279.3	0
14	728	279.4	0
14	728	279.5	0
14	728	279.6	0
14	728	279.7	0
14	728	279.8	0
14	728	279.9	0
14	728	280	0
14	728	280.1	0
14	728	280.2	0
14	728	280.3	0
14	728	280.4	0
14	728	280.5	0
14	728	280.6	0
14	728	280.7	0
14	728	280.8	0
14	728	280.9	0
14	728	281	0
14	728	281.1	0
14	728	281.2	0
14	728	281.3	0
14	728	281.4	0
14	728	281.5	0
14	728	281.6	0
14	728	281.7	0
14	728	281.8	0
14	728	281.9	0
14	728	282	0
14	728	282.1	0
14	728	282.2	0
14	728	282.3	0
14	728	282.4	0
14	728	282.5	0
14	728	282.6	0
14	728	282.7	0
14	728	282.8	0
14	728	282.9	0
14	728	283	0
14	728	283.1	0
14	728	283.2	0
14	728	283.3	0
14	728	283.4	0
14	728	283.5	0
14	728	283.6	0
14	728	283.7	0
14	728	283.8	0
14	728	283.9	0
14	728	284	0
14	728	284.1	0
14	728	284.2	0
14	728	284.3	0
14	728	284.4	0
14	728	284.5	0
14	728	284.6	0
14	728	284.7	0
14	728	284.8	0
14	728	284.9	0
14	728	285	0
14	728	285.1	0
14	728	285.2	0
14	728	285.3	0
14	728	285.4	0
14	728	285.5	0
14	728	285.6	0
14	728	285.7	0
14	728	285.8	0
14	728	285.9	0
14	728	286	0
14	728	286.1	0
14	728	286.2	0
14	728	286.3	0
14	728	286.4	0
14	728	286.5	0
14	728	286.6	0
14	728	286.7	0
14	728	286.8	0
14	728	286.9	0
14	728	287	0
14	728	287.1	0
14	728	287.2	0
14	728	287.3	0
14	728	287.4	0
14	728	287.5	0
14	728	287.6	0
14	728	287.7	0
14	728	287.8	0
14	728	287.9	0
14	728	288	0
14	728	288.1	0
14	728	288.2	0
14	728	288.3	0
14	728	288.4	0
14	728	288.5	0
14	728	288.6	0
14	728	288.7	0
14	728	288.8	0
14	728	288.9	0
14	728	289	0
14	728	289.1	0
14	728	289.2	0
14	728	289.3	0
14	728	289.4	0
14	728	289.5	0
14	728	289.6	0
14	728	289.7	0
14	728	289.8	0
14	728	289.9	0
14	728	290	0
14	728	290.1	0
14	728	290.2	0
14	728	290.3	0
14	728	290.4	0
14	728	290.5	0
14	728	290.6	0
14	728	290.7	0
14	728	290.8	0
14	728	290.9	0
14	728	291	0
14	728	291.1	0
14	728	291.2	0
14	728	291.3	0
14	728	291.4	0
14	728	291.5	0
14	728	291.6	0
14	728	291.7	0
14	728	291.8	0
14	728	291.9	0
14	728	292	0
14	728	292.1	0
14	728	292.2	0
14	728	292.3	0
14	728	292.4	0
14	728	292.5	0
14	728	292.6	0
14	728	292.7	0
14	728	292.8	0
14	728	292.9	0
14	728	293	0
14	728	293.1	0
14	728	293.2	0
14	728	293.3	0
14	728	293.4	0
14	728	293.5	0
14	728	293.6	0
14	728	293.7	0
14	728	293.8	0
14	728	293.9	0
14	728	294	0
14	728	294.1	0
14	728	294.2	0
14	728	294.3	0
14	728	294.4	0
14	728	294.5	0
14	728	294.6	0
14	728	294.7	0
14	728	294.8	0
14	728	294.9	0
14	728	295	0
14	728	295.1	0
14	728	295.2	0
14	728	295.3	0
14	728	295.4	0
14	728	295.5	0
14	728	295.6	0
14	728	295.7	0
14	728	295.8	0
14	728	295.9	0
14	728	296	0
14	728	296.1	0
14	728	296.2	0
14	728	296.3	0
14	728	296.4	0
14	728	296.5	0
14	728	296.6	0
14	728	296.7	0
14	728	296.8	0
14	728	296.9	0
14	728	297	0
14	728	297.1	0
14	728	297.2	0
14	728	297.3	0
14	728	297.4	0
14	728	297.5	0
14	728	297.6	0
14	728	297.7	0
14	728	297.8	0
14	728	297.9	0
14	728	298	0
14	728	298.1	0
14	728	298.2	0
14	728	298.3	0
14	728	298.4	0
14	728	298.5	0
14	728	298.6	0
14	728	298.7	0
14	728	298.8	0
14	728	298.9	0
14	728	299	0
14	728	299.1	0
14	728	299.2	0
14	728	299.3	0
14	728	299.4	0
14	728	299.5	0
14	728	299.6	0
14	728	299.7	0
14	728	299.8	0
14	728	299.9	0
14	728	300	0
14	728	300.1	0
14	728	300.2	0
14	728	300.3	0
14	728	300.4	0
14	728	300.5	0
14	728	300.6	0
14	728	300.7	0
14	728	300.8	0
14	728	300.9	0
14	728	301	0
14	728	301.1	0
14	728	301.2	0
14	728	301.3	0
14	728	301.4	0
14	728	301.5	0
14	728	301.6	0
14	728	301.7	0
14	728	301.8	0
14	728	301.9	0
14	728	302	0
14	728	302.1	0
14	728	302.2	0
14	728	302.3	0
14	728	302.4	0
14	728	302.5	0
14	728	302.6	0
14	728	302.7	0
14	728	302.8	0
14	728	302.9	0
14	728	303	0
14	728	303.1	0
14	728	303.2	0
14	728	303.3	0
14	728	303.4	0
14	728	303.5	0
14	728	303.6	0
14	728	303.7	0
14	728	303.8	0
14	728	303.9	0
14	728	304	0
14	728	304.1	0
14	728	304.2	0
14	728	304.3	0
14	728	304.4	0
14	728	304.5	0
14	728	304.6	0
14	728	304.7	0
14	728	304.8	0
14	728	304.9	0
14	728	305	0
14	728	305.1	0
14	728	305.2	0
14	728	305.3	0
14	728	305.4	0
14	728	305.5	0
14	728	305.6	0
14	728	305.7	0
14	728	305.8	0
14	728	305.9	0
14	728	306	0
14	728	306.1	0
14	728	306.2	0
14	728	306.3	0
14	728	306.4	0
14	728	306.5	0
14	728	306.6	0
14	728	306.7	0
14	728	306.8	0
14	728	306.9	0
14	728	307	0
14	728	307.1	0
14	728	307.2	0
14	728	307.3	0
14	728	307.4	0
14	728	307.5	0
14	728	307.6	0
14	728	307.7	0
14	728	307.8	0
14	728	307.9	0
14	728	308	0
14	728	308.1	0
14	728	308.2	0
14	728	308.3	0
14	728	308.4	0
14	728	308.5	0
14	728	308.6	0
14	728	308.7	0
14	728	308.8	0
14	728	308.9	0
14	728	309	0
14	728	309.1	0
14	728	309.2	0
14	728	309.3	0
14	728	309.4	0
14	728	309.5	0
14	728	309.6	0
14	728	309.7	0
14	728	309.8	0
14	728	309.9	0
14	728	310	0
14	728	310.1	0
14	728	310.2	0
14	728	310.3	0
14	728	310.4	0
14	728	310.5	0
14	728	310.6	0
14	728	310.7	0
14	728	310.8	0
14	728	310.9	0
14	728	311	0
14	728	311.1	0
14	728	311.2	0
14	728	311.3	0
14	728	311.4	0
14	728	311.5	0
14	728	311.6	0
14	728	311.7	0
14	728	311.8	0
14	728	311.9	0
14	728	312	0
14	728	312.1	0
14	728	312.2	0
14	728	312.3	0
14	728	312.4	0
14	728	312.5	0
14	728	312.6	0
14	728	312.7	0
14	728	312.8	0
14	728	312.9	0
14	728	313	0
14	728	313.1	0
14	728	313.2	0
14	728	313.3	0
14	728	313.4	0
14	728	313.5	0
14	728	313.6	0
14	728	313.7	0
14	728	313.8	0
14	728	313.9	0
14	728	314	0
14	728	314.1	0
14	728	314.2	0
14	728	314.3	0
14	728	314.4	0
14	728	314.5	0
14	728	314.6	0
14	728	314.7	0
14	728	314.8	0
14	728	314.9	0
14	728	315	0
14	728	315.1	0
14	728	315.2	0
14	728	315.3	0
14	728	315.4	0
14	728	315.5	0
14	728	315.6	0
14	728	315.7	0
14	728	315.8	0
14	728	315.9	0
14	728	316	0
14	728	316.1	0
14	728	316.2	0
14	728	316.3	0
14	728	316.4	0
14	728	316.5	0
14	728	316.6	0
14	728	316.7	0
14	728	316.8	0
14	728	316.9	0
14	728	317	0
14	728	317.1	0
14	728	317.2	0
14	728	317.3	0
14	728	317.4	0
14	728	317.5	0
14	728	317.6	0
14	728	317.7	0
14	728	317.8	0
14	728	317.9	0
14	728	318	0
14	728	318.1	0
14	728	318.2	0
14	728	318.3	0
14	728	318.4	0
14	728	318.5	0
14	728	318.6	0
14	728	318.7	0
14	728	318.8	0
14	728	318.9	0
14	728	319	0
14	728	319.1	0
14	728	319.2	0
14	728	319.3	0
14	728	319.4	0
14	728	319.5	0
14	728	319.6	0
14	728	319.7	0
14	728	319.8	0
14	728	319.9	0
14	728	320	0
14	728	320.1	0
14	728	320.2	0
14	728	320.3	0
14	728	320.4	0
14	728	320.5	0
14	728	320.6	0
14	728	320.7	0
14	728	320.8	0
14	728	320.9	0
14	728	321	0
14	728	321.1	0
14	728	321.2	0
14	728	321.3	0
14	728	321.4	0
14	728	321.5	0
14	728	321.6	0
14	728	321.7	0
14	728	321.8	0
14	728	321.9	0
14	728	322	0
14	728	322.1	0
14	728	322.2	0
14	728	322.3	0
14	728	322.4	0
14	728	322.5	0
14	728	322.6	0
14	728	322.7	0
14	728	322.8	0
14	728	322.9	0
14	728	323	0
14	728	323.1	0
14	728	323.2	0
14	728	323.3	0
14	728	323.4	0
14	728	323.5	0
14	728	323.6	0
14	728	323.7	0
14	728	323.8	0
14	728	323.9	0
14	728	324	0
14	728	324.1	0
14	728	324.2	0
14	728	324.3	0
14	728	324.4	0
14	728	324.5	0
14	728	324.6	0
14	728	324.7	0
14	728	324.8	0
14	728	324.9	0
14	728	325	0
14	728	325.1	0
14	728	325.2	0
14	728	325.3	0
14	728	325.4	0
14	728	325.5	0
14	728	325.6	0
14	728	325.7	0
14	728	325.8	0
14	728	325.9	0
14	728	326	0
14	728	326.1	0
14	728	326.2	0
14	728	326.3	0
14	728	326.4	0
14	728	326.5	0
14	728	326.6	0
14	728	326.7	0
14	728	326.8	0
14	728	326.9	0
14	728	327	0
14	728	327.1	0
14	728	327.2	0
14	728	327.3	0
14	728	327.4	0
14	728	327.5	0
14	728	327.6	0
14	728	327.7	0
14	728	327.8	0
14	728	327.9	0
14	728	328	0
14	728	328.1	0
14	728	328.2	0
14	728	328.3	0
14	728	328.4	0
14	728	328.5	0
14	728	328.6	0
14	728	328.7	0
14	728	328.8	0
14	728	328.9	0
14	728	329	0
14	728	329.1	0
14	728	329.2	0
14	728	329.3	0
14	728	329.4	0
14	728	329.5	0
14	728	329.6	0
14	728	329.7	0
14	728	329.8	0
14	728	329.9	0
14	728	330	0
14	728	330.1	0
14	728	330.2	0
14	728	330.3	0
14	728	330.4	0
14	728	330.5	0
14	728	330.6	0
14	728	330.7	0
14	728	330.8	0
14	728	330.9	0
14	728	331	0
14	728	331.1	0
14	728	331.2	0
14	728	331.3	0
14	728	331.4	0
14	728	331.5	0
14	728	331.6	0
14	728	331.7	0
14	728	331.8	0
14	728	331.9	0
14	728	332	0
14	728	332.1	0
14	728	332.2	0
14	728	332.3	0
14	728	332.4	0
14	728	332.5	0
14	728	332.6	0
14	728	332.7	0
14	728	332.8	0
14	728	332.9	0
14	728	333	0
14	728	333.1	0
14	728	333.2	0
14	728	333.3	0
14	728	333.4	0
14	728	333.5	0
14	728	333.6	0
14	728	333.7	0
14	728	333.8	0
14	728	333.9	0
14	728	334	0
14	728	334.1	0
14	728	334.2	0
14	728	334.3	0
14	728	334.4	0
14	728	334.5	0
14	728	334.6	0
14	728	334.7	0
14	728	334.8	0
14	728	334.9	0
14	728	335	0
14	728	335.1	0
14	728	335.2	0
14	728	335.3	0
14	728	335.4	0
14	728	335.5	0
14	728	335.6	0
14	728	335.7	0
14	728	335.8	0
14	728	335.9	0
14	728	336	0
14	728	336.1	0
14	728	336.2	0
14	728	336.3	0
14	728	336.4	0
14	728	336.5	0
14	728	336.6	0
14	728	336.7	0
14	728	336.8	0
14	728	336.9	0
14	728	337	0
14	728	337.1	0
14	728	337.2	0
14	728	337.3	0
14	728	337.4	0
14	728	337.5	0
14	728	337.6	0
14	728	337.7	0
14	728	337.8	0
14	728	337.9	0
14	728	338	0
14	728	338.1	0
14	728	338.2	0
14	728	338.3	0
14	728	338.4	0
14	728	338.5	0
14	728	338.6	0
14	728	338.7	0
14	728	338.8	0
14	728	338.9	0
14	728	339	0
14	728	339.1	0
14	728	339.2	0
14	728	339.3	0
14	728	339.4	0
14	728	339.5	0
14	728	339.6	0
14	728	339.7	0
14	728	339.8	0
14	728	339.9	0
14	728	340	0
14	728	340.1	0
14	728	340.2	0
14	728	340.3	0
14	728	340.4	0
14	728	340.5	0
14	728	340.6	0
14	728	340.7	0
14	728	340.8	0
14	728	340.9	0
14	728	341	0
14	728	341.1	0
14	728	341.2	0
14	728	341.3	0
14	728	341.4	0
14	728	341.5	0
14	728	341.6	0
14	728	341.7	0
14	728	341.8	0
14	728	341.9	0
14	728	342	0
14	728	342.1	0
14	728	342.2	0
14	728	342.3	0
14	728	342.4	0
14	728	342.5	0
14	728	342.6	0
14	728	342.7	0
14	728	342.8	0
14	728	342.9	0
14	728	343	0
14	728	343.1	0
14	728	343.2	0
14	728	343.3	0
14	728	343.4	0
14	728	343.5	0
14	728	343.6	0
14	728	343.7	0
14	728	343.8	0
14	728	343.9	0
14	728	344	0
14	728	344.1	0
14	728	344.2	0
14	728	344.3	0
14	728	344.4	0
14	728	344.5	0
14	728	344.6	0
14	728	344.7	0
14	728	344.8	0
14	728	344.9	0
14	728	345	0
14	728	345.1	0
14	728	345.2	0
14	728	345.3	0
14	728	345.4	0
14	728	345.5	0
14	728	345.6	0
14	728	345.7	0
14	728	345.8	0
14	728	345.9	0
14	728	346	0
14	728	346.1	0
14	728	346.2	0
14	728	346.3	0
14	728	346.4	0
14	728	346.5	0
14	728	346.6	0
14	728	346.7	0
14	728	346.8	0
14	728	346.9	0
14	728	347	0
14	728	347.1	0
14	728	347.2	0
14	728	347.3	0
14	728	347.4	0
14	728	347.5	0
14	728	347.6	0
14	728	347.7	0
14	728	347.8	0
14	728	347.9	0
14	728	348	0
14	728	348.1	0
14	728	348.2	0
14	728	348.3	0
14	728	348.4	0
14	728	348.5	0
14	728	348.6	0
14	728	348.7	0
14	728	348.8	0
14	728	348.9	0
14	728	349	0
14	728	349.1	0
14	728	349.2	0
14	728	349.3	0
14	728	349.4	0
14	728	349.5	0
14	728	349.6	0
14	728	349.7	0
14	728	349.8	0
14	728	349.9	0
14	728	350	0
14	728	350.1	0
14	728	350.2	0
14	728	350.3	0
14	728	350.4	0
14	728	350.5	0
14	728	350.6	0
14	728	350.7	0
14	728	350.8	0
14	728	350.9	0
14	728	351	0
14	728	351.1	0
14	728	351.2	0
14	728	351.3	0
14	728	351.4	0
14	728	351.5	0
14	728	351.6	0
14	728	351.7	0
14	728	351.8	0
14	728	351.9	0
14	728	352	0
14	728	352.1	0
14	728	352.2	0
14	728	352.3	0
14	728	352.4	0
14	728	352.5	0
14	728	352.6	0
14	728	352.7	0
14	728	352.8	0
14	728	352.9	0
14	728	353	0
14	728	353.1	0
14	728	353.2	0
14	728	353.3	0
14	728	353.4	0
14	728	353.5	0
14	728	353.6	0
14	728	353.7	0
14	728	353.8	0
14	728	353.9	0
14	728	354	0
14	728	354.1	0
14	728	354.2	0
14	728	354.3	0
14	728	354.4	0
14	728	354.5	0
14	728	354.6	0
14	728	354.7	0
14	728	354.8	0
14	728	354.9	0
14	728	355	0
14	728	355.1	0
14	728	355.2	0
14	728	355.3	0
14	728	355.4	0
14	728	355.5	0
14	728	355.6	0
14	728	355.7	0
14	728	355.8	0
14	728	355.9	0
14	728	356	0
14	728	356.1	0
14	728	356.2	0
14	728	356.3	0
14	728	356.4	0
14	728	356.5	0
14	728	356.6	0
14	728	356.7	0
14	728	356.8	0
14	728	356.9	0
14	728	357	0
14	728	357.1	0
14	728	357.2	0
14	728	357.3	0
14	728	357.4	0
14	728	357.5	0
14	728	357.6	0
14	728	357.7	0
14	728	357.8	0
14	728	357.9	0
14	728	358	0
14	728	358.1	0
14	728	358.2	0
14	728	358.3	0
14	728	358.4	0
14	728	358.5	0
14	728	358.6	0
14	728	358.7	0
14	728	358.8	0
14	728	358.9	0
14	728	359	0
14	728	359.1	0
14	728	359.2	0
14	728	359.3	0
14	728	359.4	0
14	728	359.5	0
14	728	359.6	0
14	728	359.7	0
14	728	359.8	0
14	728	359.9	0
14	728	360	0
14	728	360.1	0
14	728	360.2	0
14	728	360.3	0
14	728	360.4	0
14	728	360.5	0
14	728	360.6	0
14	728	360.7	0
14	728	360.8	0
14	728	360.9	0
14	728	361	0
14	728	361.1	0
14	728	361.2	0
14	728	361.3	0
14	728	361.4	0
14	728	361.5	0
14	728	361.6	0
14	728	361.7	0
14	728	361.8	0
14	728	361.9	0
14	728	362	0
14	728	362.1	0
14	728	362.2	0
14	728	362.3	0
14	728	362.4	0
14	728	362.5	0
14	728	362.6	0
14	728	362.7	0
14	728	362.8	0
14	728	362.9	0
14	728	363	0
14	728	363.1	0
14	728	363.2	0
14	728	363.3	0
14	728	363.4	0
14	728	363.5	0
14	728	363.6	0
14	728	363.7	0
14	728	363.8	0
14	728	363.9	0
14	728	364	0
14	728	364.1	0
14	728	364.2	0
14	728	364.3	0
14	728	364.4	0
14	728	364.5	0
14	728	364.6	0
14	728	364.7	0
14	728	364.8	0
14	728	364.9	0
14	728	365	0
14	728	365.1	0
14	728	365.2	0
14	728	365.3	0
14	728	365.4	0
14	728	365.5	0
14	728	365.6	0
14	728	365.7	0
14	728	365.8	0
14	728	365.9	0
14	728	366	0
14	728	366.1	0
14	728	366.2	0
14	728	366.3	0
14	728	366.4	0
14	728	366.5	0
14	728	366.6	0
14	728	366.7	0
14	728	366.8	0
14	728	366.9	0
14	728	367	0
14	728	367.1	0
14	728	367.2	0
14	728	367.3	0
14	728	367.4	0
14	728	367.5	0
14	728	367.6	0
14	728	367.7	0
14	728	367.8	0
14	728	367.9	0
14	728	368	0
14	728	368.1	0
14	728	368.2	0
14	728	368.3	0
14	728	368.4	0
14	728	368.5	0
14	728	368.6	0
14	728	368.7	0
14	728	368.8	0
14	728	368.9	0
14	728	369	0
14	728	369.1	0
14	728	369.2	0
14	728	369.3	0
14	728	369.4	0
14	728	369.5	0
14	728	369.6	0
14	728	369.7	0
14	728	369.8	0
14	728	369.9	0
14	728	370	0
14	728	370.1	0
14	728	370.2	0
14	728	370.3	0
14	728	370.4	0
14	728	370.5	0
14	728	370.6	0
14	728	370.7	0
14	728	370.8	0
14	728	370.9	0
14	728	371	0
14	728	371.1	0
14	728	371.2	0
14	728	371.3	0
14	728	371.4	0
14	728	371.5	0
14	728	371.6	0
14	728	371.7	0
14	728	371.8	0
14	728	371.9	0
14	728	372	0
14	728	372.1	0
14	728	372.2	0
14	728	372.3	0
14	728	372.4	0
14	728	372.5	0
14	728	372.6	0
14	728	372.7	0
14	728	372.8	0
14	728	372.9	0
14	728	373	0
14	728	373.1	0
14	728	373.2	0
14	728	373.3	0
14	728	373.4	0
14	728	373.5	0
14	728	373.6	0
14	728	373.7	0
14	728	373.8	0
14	728	373.9	0
14	728	374	0
14	728	374.1	0
14	728	374.2	0
14	728	374.3	0
14	728	374.4	0
14	728	374.5	0
14	728	374.6	0
14	728	374.7	0
14	728	374.8	0
14	728	374.9	0
14	728	375	0
14	728	375.1	0
14	728	375.2	0
14	728	375.3	0
14	728	375.4	0
14	728	375.5	0
14	728	375.6	0
14	728	375.7	0
14	728	375.8	0
14	728	375.9	0
14	728	376	0
14	728	376.1	0
14	728	376.2	0
14	728	376.3	0
14	728	376.4	0
14	728	376.5	0
14	728	376.6	0
14	728	376.7	0
14	728	376.8	0
14	728	376.9	0
14	728	377	0
14	728	377.1	0
14	728	377.2	0
14	728	377.3	0
14	728	377.4	0
14	728	377.5	0
14	728	377.6	0
14	728	377.7	0
14	728	377.8	0
14	728	377.9	0
14	728	378	0
14	728	378.1	0
14	728	378.2	0
14	728	378.3	0
14	728	378.4	0
14	728	378.5	0
14	728	378.6	0
14	728	378.7	0
14	728	378.8	0
14	728	378.9	0
14	728	379	0
14	728	379.1	0
14	728	379.2	0
14	728	379.3	0
14	728	379.4	0
14	728	379.5	0
14	728	379.6	0
14	728	379.7	0
14	728	379.8	0
14	728	379.9	0
14	728	380	0
14	728	380.1	0
14	728	380.2	0
14	728	380.3	0
14	728	380.4	0
14	728	380.5	0
14	728	380.6	0
14	728	380.7	0
14	728	380.8	0
14	728	380.9	0
14	728	381	0
14	728	381.1	0
14	728	381.2	0
14	728	381.3	0
14	728	381.4	0
14	728	381.5	0
14	728	381.6	0
14	728	381.7	0
14	728	381.8	0
14	728	381.9	0
14	728	382	0
14	728	382.1	0
14	728	382.2	0
14	728	382.3	0
14	728	382.4	0
14	728	382.5	0
14	728	382.6	0
14	728	382.7	0
14	728	382.8	0
14	728	382.9	0
14	728	383	0
14	728	383.1	0
14	728	383.2	0
14	728	383.3	0
14	728	383.4	0
14	728	383.5	0
14	728	383.6	0
14	728	383.7	0
14	728	383.8	0
14	728	383.9	0
14	728	384	0
14	728	384.1	0
14	728	384.2	0
14	728	384.3	0
14	728	384.4	0
14	728	384.5	0
14	728	384.6	0
14	728	384.7	0
14	728	384.8	0
14	728	384.9	0
14	728	385	0
14	728	385.1	0
14	728	385.2	0
14	728	385.3	0
14	728	385.4	0
14	728	385.5	0
14	728	385.6	0
14	728	385.7	0
14	728	385.8	0
14	728	385.9	0
14	728	386	0
14	728	386.1	0
14	728	386.2	0
14	728	386.3	0
14	728	386.4	0
14	728	386.5	0
14	728	386.6	0
14	728	386.7	0
14	728	386.8	0
14	728	386.9	0
14	728	387	0
14	728	387.1	0
14	728	387.2	0
14	728	387.3	0
14	728	387.4	0
14	728	387.5	0
14	728	387.6	0
14	728	387.7	0
14	728	387.8	0
14	728	387.9	0
14	728	388	0
14	728	388.1	0
14	728	388.2	0
14	728	388.3	0
14	728	388.4	0
14	728	388.5	0
14	728	388.6	0
14	728	388.7	0
14	728	388.8	0
14	728	388.9	0
14	728	389	0
14	728	389.1	0
14	728	389.2	0
14	728	389.3	0
14	728	389.4	0
14	728	389.5	0
14	728	389.6	0
14	728	389.7	0
14	728	389.8	0
14	728	389.9	0
14	728	390	0
14	728	390.1	0
14	728	390.2	0
14	728	390.3	0
14	728	390.4	0
14	728	390.5	0
14	728	390.6	0
14	728	390.7	0
14	728	390.8	0
14	728	390.9	0
14	728	391	0
14	728	391.1	0
14	728	391.2	0
14	728	391.3	0
14	728	391.4	0
14	728	391.5	0
14	728	391.6	0
14	728	391.7	0
14	728	391.8	0
14	728	391.9	0
14	728	392	0
14	728	392.1	0
14	728	392.2	0
14	728	392.3	0
14	728	392.4	0
14	728	392.5	0
14	728	392.6	0
14	728	392.7	0
14	728	392.8	0
14	728	392.9	0
14	728	393	0
14	728	393.1	0
14	728	393.2	0
14	728	393.3	0
14	728	393.4	0
14	728	393.5	0
14	728	393.6	0
14	728	393.7	0
14	728	393.8	0
14	728	393.9	0
14	728	394	0
14	728	394.1	0
14	728	394.2	0
14	728	394.3	0
14	728	394.4	0
14	728	394.5	0
14	728	394.6	0
14	728	394.7	0
14	728	394.8	0
14	728	394.9	0
14	728	395	0
14	728	395.1	0
14	728	395.2	0
14	728	395.3	0
14	728	395.4	0
14	728	395.5	0
14	728	395.6	0
14	728	395.7	0
14	728	395.8	0
14	728	395.9	0
14	728	396	0
14	728	396.1	0
14	728	396.2	0
14	728	396.3	0
14	728	396.4	0
14	728	396.5	0
14	728	396.6	0
14	728	396.7	0
14	728	396.8	0
14	728	396.9	0
14	728	397	0
14	728	397.1	0
14	728	397.2	0
14	728	397.3	0
14	728	397.4	0
14	728	397.5	0
14	728	397.6	0
14	728	397.7	0
14	728	397.8	0
14	728	397.9	0
14	728	398	0
14	728	398.1	0
14	728	398.2	0
14	728	398.3	0
14	728	398.4	0
14	728	398.5	0
14	728	398.6	0
14	728	398.7	0
14	728	398.8	0
14	728	398.9	0
14	728	399	0
14	728	399.1	0
14	728	399.2	0
14	728	399.3	0
14	728	399.4	0
14	728	399.5	0
14	728	399.6	0
14	728	399.7	0
14	728	399.8	0
14	728	399.9	0
14	728	400	0
14	728	400.1	0
14	728	400.2	0
14	728	400.3	0
14	728	400.4	0
14	728	400.5	0
14	728	400.6	0
14	728	400.7	0
14	728	400.8	0
14	728	400.9	0
14	728	401	0
14	728	401.1	0
14	728	401.2	0
14	728	401.3	0
14	728	401.4	0
14	728	401.5	0
14	728	401.6	0
14	728	401.7	0
14	728	401.8	0
14	728	401.9	0
14	728	402	0
14	728	402.1	0
14	728	402.2	0
14	728	402.3	0
14	728	402.4	0
14	728	402.5	0
14	728	402.6	0
14	728	402.7	0
14	728	402.8	0
14	728	402.9	0
14	728	403	0
14	728	403.1	0
14	728	403.2	0
14	728	403.3	0
14	728	403.4	0
14	728	403.5	0
14	728	403.6	0
14	728	403.7	0
14	728	403.8	0
14	728	403.9	0
14	728	404	0
14	728	404.1	0
14	728	404.2	0
14	728	404.3	0
14	728	404.4	0
14	728	404.5	0
14	728	404.6	0
14	728	404.7	0
14	728	404.8	0
14	728	404.9	0
14	728	405	0
14	728	405.1	0
14	728	405.2	0
14	728	405.3	0
14	728	405.4	0
14	728	405.5	0
14	728	405.6	0
14	728	405.7	0
14	728	405.8	0
14	728	405.9	0
14	728	406	0
14	728	406.1	0
14	728	406.2	0
14	728	406.3	0
14	728	406.4	0
14	728	406.5	0
14	728	406.6	0
14	728	406.7	0
14	728	406.8	0
14	728	406.9	0
14	728	407	0
14	728	407.1	0
14	728	407.2	0
14	728	407.3	0
14	728	407.4	0
14	728	407.5	0
14	728	407.6	0
14	728	407.7	0
14	728	407.8	0
14	728	407.9	0
14	728	408	0
14	728	408.1	0
14	728	408.2	0
14	728	408.3	0
14	728	408.4	0
14	728	408.5	0
14	728	408.6	0
14	728	408.7	0
14	728	408.8	0
14	728	408.9	0
14	728	409	0
14	728	409.1	0
14	728	409.2	0
14	728	409.3	0
14	728	409.4	0
14	728	409.5	0
14	728	409.6	0
14	728	409.7	0
14	728	409.8	0
14	728	409.9	0
14	728	410	0
14	728	410.1	0
14	728	410.2	0
14	728	410.3	0
14	728	410.4	0
14	728	410.5	0
14	728	410.6	0
14	728	410.7	0
14	728	410.8	0
14	728	410.9	0
14	728	411	0
14	728	411.1	0
14	728	411.2	0
14	728	411.3	0
14	728	411.4	0
14	728	411.5	0
14	728	411.6	0
14	728	411.7	0
14	728	411.8	0
14	728	411.9	0
14	728	412	0
14	728	412.1	0
14	728	412.2	0
14	728	412.3	0
14	728	412.4	0
14	728	412.5	0
14	728	412.6	0
14	728	412.7	0
14	728	412.8	0
14	728	412.9	0
14	728	413	0
14	728	413.1	0
14	728	413.2	0
14	728	413.3	0
14	728	413.4	0
14	728	413.5	0
14	728	413.6	0
14	728	413.7	0
14	728	413.8	0
14	728	413.9	0
14	728	414	0
14	728	414.1	0
14	728	414.2	0
14	728	414.3	0
14	728	414.4	0
14	728	414.5	0
14	728	414.6	0
14	728	414.7	0
14	728	414.8	0
14	728	414.9	0
14	728	415	0
14	728	415.1	0
14	728	415.2	0
14	728	415.3	0
14	728	415.4	0
14	728	415.5	0
14	728	415.6	0
14	728	415.7	0
14	728	415.8	0
14	728	415.9	0
14	728	416	0
14	728	416.1	0
14	728	416.2	0
14	728	416.3	0
14	728	416.4	0
14	728	416.5	0
14	728	416.6	0
14	728	416.7	0
14	728	416.8	0
14	728	416.9	0
14	728	417	0
14	728	417.1	0
14	728	417.2	0
14	728	417.3	0
14	728	417.4	0
14	728	417.5	0
14	728	417.6	0
14	728	417.7	0
14	728	417.8	0
14	728	417.9	0
14	728	418	0
14	728	418.1	0
14	728	418.2	0
14	728	418.3	0
14	728	418.4	0
14	728	418.5	0
14	728	418.6	0
14	728	418.7	0
14	728	418.8	0
14	728	418.9	0
14	728	419	0
14	728	419.1	0
14	728	419.2	0
14	728	419.3	0
14	728	419.4	0
14	728	419.5	0
14	728	419.6	0
14	728	419.7	0
14	728	419.8	0
14	728	419.9	0
14	728	420	0
14	728	420.1	0
14	728	420.2	0
14	728	420.3	0
14	728	420.4	0
14	728	420.5	0
14	728	420.6	0
14	728	420.7	0
14	728	420.8	0
14	728	420.9	0
14	728	421	0
14	728	421.1	0
14	728	421.2	0
14	728	421.3	0
14	728	421.4	0
14	728	421.5	0
14	728	421.6	0
14	728	421.7	0
14	728	421.8	0
14	728	421.9	0
14	728	422	0
14	728	422.1	0
14	728	422.2	0
14	728	422.3	0
14	728	422.4	0
14	728	422.5	0
14	728	422.6	0
14	728	422.7	0
14	728	422.8	0
14	728	422.9	0
14	728	423	0
14	728	423.1	0
14	728	423.2	0
14	728	423.3	0
14	728	423.4	0
14	728	423.5	0
14	728	423.6	0
14	728	423.7	0
14	728	423.8	0
14	728	423.9	0
14	728	424	0
14	728	424.1	0
14	728	424.2	0
14	728	424.3	0
14	728	424.4	0
14	728	424.5	0
14	728	424.6	0
14	728	424.7	0
14	728	424.8	0
14	728	424.9	0
14	728	425	0
14	728	425.1	0
14	728	425.2	0
14	728	425.3	0
14	728	425.4	0
14	728	425.5	0
14	728	425.6	0
14	728	425.7	0
14	728	425.8	0
14	728	425.9	0
14	728	426	0
14	728	426.1	0
14	728	426.2	0
14	728	426.3	0
14	728	426.4	0
14	728	426.5	0
14	728	426.6	0
14	728	426.7	0
14	728	426.8	0
14	728	426.9	0
14	728	427	0
14	728	427.1	0
14	728	427.2	0
14	728	427.3	0
14	728	427.4	0
14	728	427.5	0
14	728	427.6	0
14	728	427.7	0
14	728	427.8	0
14	728	427.9	0
14	728	428	0
14	728	428.1	0
14	728	428.2	0
14	728	428.3	0
14	728	428.4	0
14	728	428.5	0
14	728	428.6	0
14	728	428.7	0
14	728	428.8	0
14	728	428.9	0
14	728	429	0
14	728	429.1	0
14	728	429.2	0
14	728	429.3	0
14	728	429.4	0
14	728	429.5	0
14	728	429.6	0
14	728	429.7	0
14	728	429.8	0
14	728	429.9	0
14	728	430	0
14	728	430.1	0
14	728	430.2	0
14	728	430.3	0
14	728	430.4	0
14	728	430.5	0
14	728	430.6	0
14	728	430.7	0
14	728	430.8	0
14	728	430.9	0
14	728	431	0
14	728	431.1	0
14	728	431.2	0
14	728	431.3	0
14	728	431.4	0
14	728	431.5	0
14	728	431.6	0
14	728	431.7	0
14	728	431.8	0
14	728	431.9	0
14	728	432	0
14	728	432.1	0
14	728	432.2	0
14	728	432.3	0
14	728	432.4	0
14	728	432.5	0
14	728	432.6	0
14	728	432.7	0
14	728	432.8	0
14	728	432.9	0
14	728	433	0
14	728	433.1	0
14	728	433.2	0
14	728	433.3	0
14	728	433.4	0
14	728	433.5	0
14	728	433.6	0
14	728	433.7	0
14	728	433.8	0
14	728	433.9	0
14	728	434	0
14	728	434.1	0
14	728	434.2	0
14	728	434.3	0
14	728	434.4	0
14	728	434.5	0
14	728	434.6	0
14	728	434.7	0
14	728	434.8	0
14	728	434.9	0
14	728	435	0
14	728	435.1	0
14	728	435.2	0
14	728	435.3	0
14	728	435.4	0
14	728	435.5	0
14	728	435.6	0
14	728	435.7	0
14	728	435.8	0
14	728	435.9	0
14	728	436	0
14	728	436.1	0
14	728	436.2	0
14	728	436.3	0
14	728	436.4	0
14	728	436.5	0
14	728	436.6	0
14	728	436.7	0
14	728	436.8	0
14	728	436.9	0
14	728	437	0
14	728	437.1	0
14	728	437.2	0
14	728	437.3	0
14	728	437.4	0
14	728	437.5	0
14	728	437.6	0
14	728	437.7	0
14	728	437.8	0
14	728	437.9	0
14	728	438	0
14	728	438.1	0
14	728	438.2	0
14	728	438.3	0
14	728	438.4	0
14	728	438.5	0
14	728	438.6	0
14	728	438.7	0
14	728	438.8	0
14	728	438.9	0
14	728	439	0
14	728	439.1	0
14	728	439.2	0
14	728	439.3	0
14	728	439.4	0
14	728	439.5	0
14	728	439.6	0
14	728	439.7	0
14	728	439.8	0
14	728	439.9	0
14	728	440	0
14	728	440.1	0
14	728	440.2	0
14	728	440.3	0
14	728	440.4	0
14	728	440.5	0
14	728	440.6	0
14	728	440.7	0
14	728	440.8	0
14	728	440.9	0
14	728	441	0
14	728	441.1	0
14	728	441.2	0
14	728	441.3	0
14	728	441.4	0
14	728	441.5	0
14	728	441.6	0
14	728	441.7	0
14	728	441.8	0
14	728	441.9	0
14	728	442	0
14	728	442.1	0
14	728	442.2	0
14	728	442.3	0
14	728	442.4	0
14	728	442.5	0
14	728	442.6	0
14	728	442.7	0
14	728	442.8	0
14	728	442.9	0
14	728	443	0
14	728	443.1	0
14	728	443.2	0
14	728	443.3	0
14	728	443.4	0
14	728	443.5	0
14	728	443.6	0
14	728	443.7	0
14	728	443.8	0
14	728	443.9	0
14	728	444	0
14	728	444.1	0
14	728	444.2	0
14	728	444.3	0
14	728	444.4	0
14	728	444.5	0
14	728	444.6	0
14	728	444.7	0
14	728	444.8	0
14	728	444.9	0
14	728	445	0
14	728	445.1	0
14	728	445.2	0
14	728	445.3	0
14	728	445.4	0
14	728	445.5	0
14	728	445.6	0
14	728	445.7	0
14	728	445.8	0
14	728	445.9	0
14	728	446	0
14	728	446.1	0
14	728	446.2	0
14	728	446.3	0
14	728	446.4	0
14	728	446.5	0
14	728	446.6	0
14	728	446.7	0
14	728	446.8	0
14	728	446.9	0
14	728	447	0
14	728	447.1	0
14	728	447.2	0
14	728	447.3	0
14	728	447.4	0
14	728	447.5	0
14	728	447.6	0
14	728	447.7	0
14	728	447.8	0
14	728	447.9	0
14	728	448	0
14	728	448.1	0
14	728	448.2	0
14	728	448.3	0
14	728	448.4	0
14	728	448.5	0
14	728	448.6	0
14	728	448.7	0
14	728	448.8	0
14	728	448.9	0
14	728	449	0
14	728	449.1	0
14	728	449.2	0
14	728	449.3	0
14	728	449.4	0
14	728	449.5	0
14	728	449.6	0
14	728	449.7	0
14	728	449.8	0
14	728	449.9	0
14	728	450	0
14	728	450.1	0
14	728	450.2	0
14	728	450.3	0
14	728	450.4	0
14	728	450.5	0
14	728	450.6	0
14	728	450.7	0
14	728	450.8	0
14	728	450.9	0
14	728	451	0
14	728	451.1	0
14	728	451.2	0
14	728	451.3	0
14	728	451.4	0
14	728	451.5	0
14	728	451.6	0
14	728	451.7	0
14	728	451.8	0
14	728	451.9	0
14	728	452	0
14	728	452.1	0
14	728	452.2	0
14	728	452.3	0
14	728	452.4	0
14	728	452.5	0
14	728	452.6	0
14	728	452.7	0
14	728	452.8	0
14	728	452.9	0
14	728	453	0
14	728	453.1	0
14	728	453.2	0
14	728	453.3	0
14	728	453.4	0
14	728	453.5	0
14	728	453.6	0
14	728	453.7	0
14	728	453.8	0
14	728	453.9	0
14	728	454	0
14	728	454.1	0
14	728	454.2	0
14	728	454.3	0
14	728	454.4	0
14	728	454.5	0
14	728	454.6	0
14	728	454.7	0
14	728	454.8	0
14	728	454.9	0
14	728	455	0
14	728	455.1	0
14	728	455.2	0
14	728	455.3	0
14	728	455.4	0
14	728	455.5	0
14	728	455.6	0
14	728	455.7	0
14	728	455.8	0
14	728	455.9	0
14	728	456	0
14	728	456.1	0
14	728	456.2	0
14	728	456.3	0
14	728	456.4	0
14	728	456.5	0
14	728	456.6	0
14	728	456.7	0
14	728	456.8	0
14	728	456.9	0
14	728	457	0
14	728	457.1	0
14	728	457.2	0
14	728	457.3	0
14	728	457.4	0
14	728	457.5	0
14	728	457.6	0
14	728	457.7	0
14	728	457.8	0
14	728	457.9	0
14	728	458	0
14	728	458.1	0
14	728	458.2	0
14	728	458.3	0
14	728	458.4	0
14	728	458.5	0
14	728	458.6	0
14	728	458.7	0
14	728	458.8	0
14	728	458.9	0
14	728	459	0
14	728	459.1	0
14	728	459.2	0
14	728	459.3	0
14	728	459.4	0
14	728	459.5	0
14	728	459.6	0
14	728	459.7	0
14	728	459.8	0
14	728	459.9	0
14	728	460	0
14	728	460.1	0
14	728	460.2	0
14	728	460.3	0
14	728	460.4	0
14	728	460.5	0
14	728	460.6	0
14	728	460.7	0
14	728	460.8	0
14	728	460.9	0
14	728	461	0
14	728	461.1	0
14	728	461.2	0
14	728	461.3	0
14	728	461.4	0
14	728	461.5	0
14	728	461.6	0
14	728	461.7	0
14	728	461.8	0
14	728	461.9	0
14	728	462	0
14	728	462.1	0
14	728	462.2	0
14	728	462.3	0
14	728	462.4	0
14	728	462.5	0
14	728	462.6	0
14	728	462.7	0
14	728	462.8	0
14	728	462.9	0
14	728	463	0
14	728	463.1	0
14	728	463.2	0
14	728	463.3	0
14	728	463.4	0
14	728	463.5	0
14	728	463.6	0
14	728	463.7	0
14	728	463.8	0
14	728	463.9	0
14	728	464	0
14	728	464.1	0
14	728	464.2	0
14	728	464.3	0
14	728	464.4	0
14	728	464.5	0
14	728	464.6	0
14	728	464.7	0
14	728	464.8	0
14	728	464.9	0
14	728	465	0
14	728	465.1	0
14	728	465.2	0
14	728	465.3	0
14	728	465.4	0
14	728	465.5	0
14	728	465.6	0
14	728	465.7	0
14	728	465.8	0
14	728	465.9	0
14	728	466	0
14	728	466.1	0
14	728	466.2	0
14	728	466.3	0
14	728	466.4	0
14	728	466.5	0
14	728	466.6	0
14	728	466.7	0
14	728	466.8	0
14	728	466.9	0
14	728	467	0
14	728	467.1	0
14	728	467.2	0
14	728	467.3	0
14	728	467.4	0
14	728	467.5	0
14	728	467.6	0
14	728	467.7	0
14	728	467.8	0
14	728	467.9	0
14	728	468	0
14	728	468.1	0
14	728	468.2	0
14	728	468.3	0
14	728	468.4	0
14	728	468.5	0
14	728	468.6	0
14	728	468.7	0
14	728	468.8	0
14	728	468.9	0
14	728	469	0
14	728	469.1	0
14	728	469.2	0
14	728	469.3	0
14	728	469.4	0
14	728	469.5	0
14	728	469.6	0
14	728	469.7	0
14	728	469.8	0
14	728	469.9	0
14	728	470	0
14	728	470.1	0
14	728	470.2	0
14	728	470.3	0
14	728	470.4	0
14	728	470.5	0
14	728	470.6	0
14	728	470.7	0
14	728	470.8	0
14	728	470.9	0
14	728	471	0
14	728	471.1	0
14	728	471.2	0
14	728	471.3	0
14	728	471.4	0
14	728	471.5	0
14	728	471.6	0
14	728	471.7	0
14	728	471.8	0
14	728	471.9	0
14	728	472	0
14	728	472.1	0
14	728	472.2	0
14	728	472.3	0
14	728	472.4	0
14	728	472.5	0
14	728	472.6	0
14	728	472.7	0
14	728	472.8	0
14	728	472.9	0
14	728	473	0
14	728	473.1	0
14	728	473.2	0
14	728	473.3	0
14	728	473.4	0
14	728	473.5	0
14	728	473.6	0
14	728	473.7	0
14	728	473.8	0
14	728	473.9	0
14	728	474	0
14	728	474.1	0
14	728	474.2	0
14	728	474.3	0
14	728	474.4	0
14	728	474.5	0
14	728	474.6	0
14	728	474.7	0
14	728	474.8	0
14	728	474.9	0
14	728	475	0
14	728	475.1	0
[...]
31	728	1322.7	0
31	728	1322.8	0
31	728	1322.9	0
31	728	1323	0
31	728	1323.1	0
31	728	1323.2	0
31	728	1323.3	0
31	728	1323.4	0
31	728	1323.5	0
31	728	1323.6	0
31	728	1323.7	0
31	728	1323.8	0
31	728	1323.9	0
31	728	1324	0
31	728	1324.1	0
31	728	1324.2	0
31	728	1324.3	0
31	728	1324.4	0
31	728	1324.5	0
31	728	1324.6	0
31	728	1324.7	0
31	728	1324.8	0
31	728	1324.9	0
31	728	1325	0
31	728	1325.1	0
31	728	1325.2	0
31	728	1325.3	0
31	728	1325.4	0
31	728	1325.5	0
31	728	1325.6	0
31	728	1325.7	0
31	728	1325.8	0
31	728	1325.9	0
31	728	1326	0
31	728	1326.1	0
31	728	1326.2	0
31	728	1326.3	0
31	728	1326.4	0
31	728	1326.5	0
31	728	1326.6	0
31	728	1326.7	0
31	728	1326.8	0
31	728	1326.9	0
31	728	1327	0
31	728	1327.1	0
31	728	1327.2	0
31	728	1327.3	0
31	728	1327.4	0
31	728	1327.5	0
31	728	1327.6	0
31	728	1327.7	0
31	728	1327.8	0
31	728	1327.9	0
31	728	1328	0
31	728	1328.1	0
31	728	1328.2	0
31	728	1328.3	0
31	728	1328.4	0
31	728	1328.5	0
31	728	1328.6	0
31	728	1328.7	0
31	728	1328.8	0
31	728	1328.9	0
31	728	1329	0
31	728	1329.1	0
31	728	1329.2	0
31	728	1329.3	0
31	728	1329.4	0
31	728	1329.5	0
31	728	1329.6	0
31	728	1329.7	0
31	728	1329.8	0
31	728	1329.9	0
31	728	1330	0
31	728	1330.1	0
31	728	1330.2	0
31	728	1330.3	0
31	728	1330.4	0
31	728	1330.5	0
31	728	1330.6	0
31	728	1330.7	0
31	728	1330.8	0
31	728	1330.9	0
31	728	1331	0
31	728	1331.1	0
31	728	1331.2	0
31	728	1331.3	0
31	728	1331.4	0
31	728	1331.5	0
31	728	1331.6	0
31	728	1331.7	0
31	728	1331.8	0
31	728	1331.9	0
31	728	1332	0
31	728	1332.1	0
31	728	1332.2	0
31	728	1332.3	0
31	728	1332.4	0
31	728	1332.5	0
31	728	1332.6	0
31	728	1332.7	0
31	728	1332.8	0
31	728	1332.9	0
31	728	1333	0
31	728	1333.1	0
31	728	1333.2	0
31	728	1333.3	0
31	728	1333.4	0
31	728	1333.5	0
31	728	1333.6	0
31	728	1333.7	0
31	728	1333.8	0
31	728	1333.9	0
31	728	1334	0
31	728	1334.1	0
31	728	1334.2	0
31	728	1334.3	0
31	728	1334.4	0
31	728	1334.5	0
31	728	1334.6	0
31	728	1334.7	0
31	728	1334.8	0
31	728	1334.9	0
31	728	1335	0
31	728	1335.1	0
31	728	1335.2	0
31	728	1335.3	0
31	728	1335.4	0
31	728	1335.5	0
31	728	1335.6	0
31	728	1335.7	0
31	728	1335.8	0
31	728	1335.9	0
31	728	1336	0
31	728	1336.1	0
31	728	1336.2	0
31	728	1336.3	0
31	728	1336.4	0
31	728	1336.5	0
31	728	1336.6	0
31	728	1336.7	0
31	728	1336.8	0
31	728	1336.9	0
31	728	1337	0
31	728	1337.1	0
31	728	1337.2	0
31	728	1337.3	0
31	728	1337.4	0
31	728	1337.5	0
31	728	1337.6	0
31	728	1337.7	0
31	728	1337.8	0
31	728	1337.9	0
31	728	1338	0
31	728	1338.1	0
31	728	1338.2	0
31	728	1338.3	0
31	728	1338.4	0
31	728	1338.5	0
31	728	1338.6	0
31	728	1338.7	0
31	728	1338.8	0
31	728	1338.9	0
31	728	1339	0
31	728	1339.1	0
31	728	1339.2	0
31	728	1339.3	0
31	728	1339.4	0
31	728	1339.5	0
31	728	1339.6	0
31	728	1339.7	0
31	728	1339.8	0
31	728	1339.9	0
31	728	1340	0
31	728	1340.1	0
31	728	1340.2	0
31	728	1340.3	0
31	728	1340.4	0
31	728	1340.5	0
31	728	1340.6	0
31	728	1340.7	0
31	728	1340.8	0
31	728	1340.9	0
31	728	1341	0
31	728	1341.1	0
31	728	1341.2	0
31	728	1341.3	0
31	728	1341.4	0
31	728	1341.5	0
31	728	1341.6	0
31	728	1341.7	0
31	728	1341.8	0
31	728	1341.9	0
31	728	1342	0
31	728	1342.1	0
31	728	1342.2	0
31	728	1342.3	0
31	728	1342.4	0
31	728	1342.5	0
31	728	1342.6	0
31	728	1342.7	0
31	728	1342.8	0
31	728	1342.9	0
31	728	1343	0
31	728	1343.1	0
31	728	1343.2	0
31	728	1343.3	0
31	728	1343.4	0
31	728	1343.5	0
31	728	1343.6	0
31	728	1343.7	0
31	728	1343.8	0
31	728	1343.9	0
31	728	1344	0
31	728	1344.1	0
31	728	1344.2	0
31	728	1344.3	0
31	728	1344.4	0
31	728	1344.5	0
31	728	1344.6	0
31	728	1344.7	0
31	728	1344.8	0
31	728	1344.9	0
31	728	1345	0
31	728	1345.1	0
31	728	1345.2	0
31	728	1345.3	0
31	728	1345.4	0
31	728	1345.5	0
31	728	1345.6	0
31	728	1345.7	0
31	728	1345.8	0
31	728	1345.9	0
31	728	1346	0
31	728	1346.1	0
31	728	1346.2	0
31	728	1346.3	0
31	728	1346.4	0
31	728	1346.5	0
31	728	1346.6	0
31	728	1346.7	0
31	728	1346.8	0
31	728	1346.9	0
31	728	1347	0
31	728	1347.1	0
31	728	1347.2	0
31	728	1347.3	0
31	728	1347.4	0
31	728	1347.5	0
31	728	1347.6	0
31	728	1347.7	0
31	728	1347.8	0
31	728	1347.9	0
31	728	1348	0
31	728	1348.1	0
31	728	1348.2	0
31	728	1348.3	0
31	728	1348.4	0
31	728	1348.5	0
31	728	1348.6	0
31	728	1348.7	0
31	728	1348.8	0
31	728	1348.9	0
31	728	1349	0
31	728	1349.1	0
31	728	1349.2	0
31	728	1349.3	0
31	728	1349.4	0
31	728	1349.5	0
31	728	1349.6	0
31	728	1349.7	0
31	728	1349.8	0
31	728	1349.9	0
31	728	1350	0
31	728	1350.1	0
31	728	1350.2	0
31	728	1350.3	0
31	728	1350.4	0
31	728	1350.5	0
31	728	1350.6	0
31	728	1350.7	0
31	728	1350.8	0
31	728	1350.9	0
31	728	1351	0
31	728	1351.1	0
31	728	1351.2	0
31	728	1351.3	0
31	728	1351.4	0
31	728	1351.5	0
31	728	1351.6	0
31	728	1351.7	0
31	728	1351.8	0
31	728	1351.9	0
31	728	1352	0
31	728	1352.1	0
31	728	1352.2	0
31	728	1352.3	0
31	728	1352.4	0
31	728	1352.5	0
31	728	1352.6	0
31	728	1352.7	0
31	728	1352.8	0
31	728	1352.9	0
31	728	1353	0
31	728	1353.1	0
31	728	1353.2	0
31	728	1353.3	0
31	728	1353.4	0
31	728	1353.5	0
31	728	1353.6	0
31	728	1353.7	0
31	728	1353.8	0
31	728	1353.9	0
31	728	1354	0
31	728	1354.1	0
31	728	1354.2	0
31	728	1354.3	0
31	728	1354.4	0
31	728	1354.5	0
31	728	1354.6	0
31	728	1354.7	0
31	728	1354.8	0
31	728	1354.9	0
31	728	1355	0
31	728	1355.1	0
31	728	1355.2	0
31	728	1355.3	0
31	728	1355.4	0
31	728	1355.5	0
31	728	1355.6	0
31	728	1355.7	0
31	728	1355.8	0
31	728	1355.9	0
31	728	1356	0
31	728	1356.1	0
31	728	1356.2	0
31	728	1356.3	0
31	728	1356.4	0
31	728	1356.5	0
31	728	1356.6	0
31	728	1356.7	0
31	728	1356.8	0
31	728	1356.9	0
31	728	1357	0
31	728	1357.1	0
31	728	1357.2	0
31	728	1357.3	0
31	728	1357.4	0
31	728	1357.5	0
31	728	1357.6	0
31	728	1357.7	0
31	728	1357.8	0
31	728	1357.9	0
31	728	1358	0
31	728	1358.1	0
31	728	1358.2	0
31	728	1358.3	0
31	728	1358.4	0
31	728	1358.5	0
31	728	1358.6	0
31	728	1358.7	0
31	728	1358.8	0
31	728	1358.9	0
31	728	1359	0
31	728	1359.1	0
31	728	1359.2	0
31	728	1359.3	0
31	728	1359.4	0
31	728	1359.5	0
31	728	1359.6	0
31	728	1359.7	0
31	728	1359.8	0
31	728	1359.9	0
31	728	1360	0
31	728	1360.1	0
31	728	1360.2	0
31	728	1360.3	0
31	728	1360.4	0
31	728	1360.5	0
31	728	1360.6	0
31	728	1360.7	0
31	728	1360.8	0
31	728	1360.9	0
31	728	1361	0
31	728	1361.1	0
31	728	1361.2	0
31	728	1361.3	0
31	728	1361.4	0
31	728	1361.5	0
31	728	1361.6	0
31	728	1361.7	0
31	728	1361.8	0
31	728	1361.9	0
31	728	1362	0
31	728	1362.1	0
31	728	1362.2	0
31	728	1362.3	0
31	728	1362.4	0
31	728	1362.5	0
31	728	1362.6	0
31	728	1362.7	0
31	728	1362.8	0
31	728	1362.9	0
31	728	1363	0
31	728	1363.1	0
31	728	1363.2	0
31	728	1363.3	0
31	728	1363.4	0
31	728	1363.5	0
31	728	1363.6	0
31	728	1363.7	0
31	728	1363.8	0
31	728	1363.9	0
31	728	1364	0
31	728	1364.1	0
31	728	1364.2	0
31	728	1364.3	0
31	728	1364.4	0
31	728	1364.5	0
31	728	1364.6	0
31	728	1364.7	0
31	728	1364.8	0
31	728	1364.9	0
31	728	1365	0
31	728	1365.1	0
31	728	1365.2	0
31	728	1365.3	0
31	728	1365.4	0
31	728	1365.5	0
31	728	1365.6	0
31	728	1365.7	0
31	728	1365.8	0
31	728	1365.9	0
31	728	1366	0
31	728	1366.1	0
31	728	1366.2	0
31	728	1366.3	0
31	728	1366.4	0
31	728	1366.5	0
31	728	1366.6	0
31	728	1366.7	0
31	728	1366.8	0
31	728	1366.9	0
31	728	1367	0
31	728	1367.1	0
31	728	1367.2	0
31	728	1367.3	0
31	728	1367.4	0
31	728	1367.5	0
31	728	1367.6	0
31	728	1367.7	0
31	728	1367.8	0
31	728	1367.9	0
31	728	1368	0
31	728	1368.1	0
31	728	1368.2	0
31	728	1368.3	0
31	728	1368.4	0
31	728	1368.5	0
31	728	1368.6	0
31	728	1368.7	0
31	728	1368.8	0
31	728	1368.9	0
31	728	1369	0
31	728	1369.1	0
31	728	1369.2	0
31	728	1369.3	0
31	728	1369.4	0
31	728	1369.5	0
31	728	1369.6	0
31	728	1369.7	0
31	728	1369.8	0
31	728	1369.9	0
31	728	1370	0
31	728	1370.1	0
31	728	1370.2	0
31	728	1370.3	0
31	728	1370.4	0
31	728	1370.5	0
31	728	1370.6	0
31	728	1370.7	0
31	728	1370.8	0
31	728	1370.9	0
31	728	1371	0
31	728	1371.1	0
31	728	1371.2	0
31	728	1371.3	0
31	728	1371.4	0
31	728	1371.5	0
31	728	1371.6	0
31	728	1371.7	0
31	728	1371.8	0
31	728	1371.9	0
31	728	1372	0
31	728	1372.1	0
31	728	1372.2	0
31	728	1372.3	0
31	728	1372.4	0
31	728	1372.5	0
31	728	1372.6	0
31	728	1372.7	0
31	728	1372.8	0
31	728	1372.9	0
31	728	1373	0
31	728	1373.1	0
31	728	1373.2	0
31	728	1373.3	0
31	728	1373.4	0
31	728	1373.5	0
31	728	1373.6	0
31	728	1373.7	0
31	728	1373.8	0
31	728	1373.9	0
31	728	1374	0
31	728	1374.1	0
31	728	1374.2	0
31	728	1374.3	0
31	728	1374.4	0
31	728	1374.5	0
31	728	1374.6	0
31	728	1374.7	0
31	728	1374.8	0
31	728	1374.9	0
31	728	1375	0
31	728	1375.1	0
31	728	1375.2	0
31	728	1375.3	0
31	728	1375.4	0
31	728	1375.5	0
31	728	1375.6	0
31	728	1375.7	0
31	728	1375.8	0
31	728	1375.9	0
31	728	1376	0
31	728	1376.1	0
31	728	1376.2	0
31	728	1376.3	0
31	728	1376.4	0
31	728	1376.5	0
31	728	1376.6	0
31	728	1376.7	0
31	728	1376.8	0
31	728	1376.9	0
31	728	1377	0
31	728	1377.1	0
31	728	1377.2	0
31	728	1377.3	0
31	728	1377.4	0
31	728	1377.5	0
31	728	1377.6	0
31	728	1377.7	0
31	728	1377.8	0
31	728	1377.9	0
31	728	1378	0
31	728	1378.1	0
31	728	1378.2	0
31	728	1378.3	0
31	728	1378.4	0
31	728	1378.5	0
31	728	1378.6	0
31	728	1378.7	0
31	728	1378.8	0
31	728	1378.9	0
31	728	1379	0
31	728	1379.1	0
31	728	1379.2	0
31	728	1379.3	0
31	728	1379.4	0
31	728	1379.5	0
31	728	1379.6	0
31	728	1379.7	0
31	728	1379.8	0
31	728	1379.9	0
31	728	1380	0
31	728	1380.1	0
31	728	1380.2	0
31	728	1380.3	0
31	728	1380.4	0
31	728	1380.5	0
31	728	1380.6	0
31	728	1380.7	0
31	728	1380.8	0
31	728	1380.9	0
31	728	1381	0
31	728	1381.1	0
31	728	1381.2	0
31	728	1381.3	0
31	728	1381.4	0
31	728	1381.5	0
31	728	1381.6	0
31	728	1381.7	0
31	728	1381.8	0
31	728	1381.9	0
31	728	1382	0
31	728	1382.1	0
31	728	1382.2	0
31	728	1382.3	0
31	728	1382.4	0
31	728	1382.5	0
31	728	1382.6	0
31	728	1382.7	0
31	728	1382.8	0
31	728	1382.9	0
31	728	1383	0
31	728	1383.1	0
31	728	1383.2	0
31	728	1383.3	0
31	728	1383.4	0
31	728	1383.5	0
31	728	1383.6	0
31	728	1383.7	0
31	728	1383.8	0
31	728	1383.9	0
31	728	1384	0
31	728	1384.1	0
31	728	1384.2	0
31	728	1384.3	0
31	728	1384.4	0
31	728	1384.5	0
31	728	1384.6	0
31	728	1384.7	0
31	728	1384.8	0
31	728	1384.9	0
31	728	1385	0
31	728	1385.1	0
31	728	1385.2	0
31	728	1385.3	0
31	728	1385.4	0
31	728	1385.5	0
31	728	1385.6	0
31	728	1385.7	0
31	728	1385.8	0
31	728	1385.9	0
31	728	1386	0
31	728	1386.1	0
31	728	1386.2	0
31	728	1386.3	0
31	728	1386.4	0
31	728	1386.5	0
31	728	1386.6	0
31	728	1386.7	0
31	728	1386.8	0
31	728	1386.9	0
31	728	1387	0
31	728	1387.1	0
31	728	1387.2	0
31	728	1387.3	0
31	728	1387.4	0
31	728	1387.5	0
31	728	1387.6	0
31	728	1387.7	0
31	728	1387.8	0
31	728	1387.9	0
31	728	1388	0
31	728	1388.1	0
31	728	1388.2	0
31	728	1388.3	0
31	728	1388.4	0
31	728	1388.5	0
31	728	1388.6	0
31	728	1388.7	0
31	728	1388.8	0
31	728	1388.9	0
31	728	1389	0
31	728	1389.1	0
31	728	1389.2	0
31	728	1389.3	0
31	728	1389.4	0
31	728	1389.5	0
31	728	1389.6	0
31	728	1389.7	0
31	728	1389.8	0
31	728	1389.9	0
31	728	1390	0
31	728	1390.1	0
31	728	1390.2	0
31	728	1390.3	0
31	728	1390.4	0
31	728	1390.5	0
31	728	1390.6	0
31	728	1390.7	0
31	728	1390.8	0
31	728	1390.9	0
31	728	1391	0
31	728	1391.1	0
31	728	1391.2	0
31	728	1391.3	0
31	728	1391.4	0
31	728	1391.5	0
31	728	1391.6	0
31	728	1391.7	0
31	728	1391.8	0
31	728	1391.9	0
31	728	1392	0
31	728	1392.1	0
31	728	1392.2	0
31	728	1392.3	0
31	728	1392.4	0
31	728	1392.5	0
31	728	1392.6	0
31	728	1392.7	0
31	728	1392.8	0
31	728	1392.9	0
31	728	1393	0
31	728	1393.1	0
31	728	1393.2	0
31	728	1393.3	0
31	728	1393.4	0
31	728	1393.5	0
31	728	1393.6	0
31	728	1393.7	0
31	728	1393.8	0
31	728	1393.9	0
31	728	1394	0
31	728	1394.1	0
31	728	1394.2	0
31	728	1394.3	0
31	728	1394.4	0
31	728	1394.5	0
31	728	1394.6	0
31	728	1394.7	0
31	728	1394.8	0
31	728	1394.9	0
31	728	1395	0
31	728	1395.1	0
31	728	1395.2	0
31	728	1395.3	0
31	728	1395.4	0
31	728	1395.5	0
31	728	1395.6	0
31	728	1395.7	0
31	728	1395.8	0
31	728	1395.9	0
31	728	1396	0
31	728	1396.1	0
31	728	1396.2	0
31	728	1396.3	0
31	728	1396.4	0
31	728	1396.5	0
31	728	1396.6	0
31	728	1396.7	0
31	728	1396.8	0
31	728	1396.9	0
31	728	1397	0
31	728	1397.1	0
31	728	1397.2	0
31	728	1397.3	0
31	728	1397.4	0
31	728	1397.5	0
31	728	1397.6	0
31	728	1397.7	0
31	728	1397.8	0
31	728	1397.9	0
31	728	1398	0
31	728	1398.1	0
31	728	1398.2	0
31	728	1398.3	0
31	728	1398.4	0
31	728	1398.5	0
31	728	1398.6	0
31	728	1398.7	0
31	728	1398.8	0
31	728	1398.9	0
31	728	1399	0
31	728	1399.1	0
31	728	1399.2	0
31	728	1399.3	0
31	728	1399.4	0
31	728	1399.5	0
31	728	1399.6	0
31	728	1399.7	0
31	728	1399.8	0
31	728	1399.9	0
31	728	1400	0
31	728	1400.1	0
31	728	1400.2	0
31	728	1400.3	0
31	728	1400.4	0
31	728	1400.5	0
31	728	1400.6	0
31	728	1400.7	0
31	728	1400.8	0
31	728	1400.9	0
31	728	1401	0
31	728	1401.1	0
31	728	1401.2	0
31	728	1401.3	0
31	728	1401.4	0
31	728	1401.5	0
31	728	1401.6	0
31	728	1401.7	0
31	728	1401.8	0
31	728	1401.9	0
31	728	1402	0
31	728	1402.1	0
31	728	1402.2	0
31	728	1402.3	0
31	728	1402.4	0
31	728	1402.5	0
31	728	1402.6	0
31	728	1402.7	0
31	728	1402.8	0
31	728	1402.9	0
31	728	1403	0
31	728	1403.1	0
31	728	1403.2	0
31	728	1403.3	0
31	728	1403.4	0
31	728	1403.5	0
31	728	1403.6	0
31	728	1403.7	0
31	728	1403.8	0
31	728	1403.9	0
31	728	1404	0
31	728	1404.1	0
31	728	1404.2	0
31	728	1404.3	0
31	728	1404.4	0
31	728	1404.5	0
31	728	1404.6	0
31	728	1404.7	0
31	728	1404.8	0
31	728	1404.9	0
31	728	1405	0
31	728	1405.1	0
31	728	1405.2	0
31	728	1405.3	0
31	728	1405.4	0
31	728	1405.5	0
31	728	1405.6	0
31	728	1405.7	0
31	728	1405.8	0
31	728	1405.9	0
31	728	1406	0
31	728	1406.1	0
31	728	1406.2	0
31	728	1406.3	0
31	728	1406.4	0
31	728	1406.5	0
31	728	1406.6	0
31	728	1406.7	0
31	728	1406.8	0
31	728	1406.9	0
31	728	1407	0
31	728	1407.1	0
31	728	1407.2	0
31	728	1407.3	0
31	728	1407.4	0
31	728	1407.5	0
31	728	1407.6	0
31	728	1407.7	0
31	728	1407.8	0
31	728	1407.9	0
31	728	1408	0
31	728	1408.1	0
31	728	1408.2	0
31	728	1408.3	0
31	728	1408.4	0
31	728	1408.5	0
31	728	1408.6	0
31	728	1408.7	0
31	728	1408.8	0
31	728	1408.9	0
31	728	1409	0
31	728	1409.1	0
31	728	1409.2	0
31	728	1409.3	0
31	728	1409.4	0
31	728	1409.5	0
31	728	1409.6	0
31	728	1409.7	0
31	728	1409.8	0
31	728	1409.9	0
31	728	1410	0
31	728	1410.1	0
31	728	1410.2	0
31	728	1410.3	0
31	728	1410.4	0
31	728	1410.5	0
31	728	1410.6	0
31	728	1410.7	0
31	728	1410.8	0
31	728	1410.9	0
31	728	1411	0
31	728	1411.1	0
31	728	1411.2	0
31	728	1411.3	0
31	728	1411.4	0
31	728	1411.5	0
31	728	1411.6	0
31	728	1411.7	0
31	728	1411.8	0
31	728	1411.9	0
31	728	1412	0
31	728	1412.1	0
31	728	1412.2	0
31	728	1412.3	0
31	728	1412.4	0
31	728	1412.5	0
31	728	1412.6	0
31	728	1412.7	0
31	728	1412.8	0
31	728	1412.9	0
31	728	1413	0
31	728	1413.1	0
31	728	1413.2	0
31	728	1413.3	0
31	728	1413.4	0
31	728	1413.5	0
31	728	1413.6	0
31	728	1413.7	0
31	728	1413.8	0
31	728	1413.9	0
31	728	1414	0
31	728	1414.1	0
31	728	1414.2	0
31	728	1414.3	0
31	728	1414.4	0
31	728	1414.5	0
31	728	1414.6	0
31	728	1414.7	0
31	728	1414.8	0
31	728	1414.9	0
31	728	1415	0
31	728	1415.1	0
31	728	1415.2	0
31	728	1415.3	0
31	728	1415.4	0
31	728	1415.5	0
31	728	1415.6	0
31	728	1415.7	0
31	728	1415.8	0
31	728	1415.9	0
31	728	1416	0
31	728	1416.1	0
31	728	1416.2	0
31	728	1416.3	0
31	728	1416.4	0
31	728	1416.5	0
31	728	1416.6	0
31	728	1416.7	0
31	728	1416.8	0
31	728	1416.9	0
31	728	1417	0
31	728	1417.1	0
31	728	1417.2	0
31	728	1417.3	0
31	728	1417.4	0
31	728	1417.5	0
31	728	1417.6	0
31	728	1417.7	0
31	728	1417.8	0
31	728	1417.9	0
31	728	1418	0
31	728	1418.1	0
31	728	1418.2	0
31	728	1418.3	0
31	728	1418.4	0
31	728	1418.5	0
31	728	1418.6	0
31	728	1418.7	0
31	728	1418.8	0
31	728	1418.9	0
31	728	1419	0
31	728	1419.1	0
31	728	1419.2	0
31	728	1419.3	0
31	728	1419.4	0
31	728	1419.5	0
31	728	1419.6	0
31	728	1419.7	0
31	728	1419.8	0
31	728	1419.9	0
31	728	1420	0
31	728	1420.1	0
31	728	1420.2	0
31	728	1420.3	0
31	728	1420.4	0
31	728	1420.5	0
31	728	1420.6	0
31	728	1420.7	0
31	728	1420.8	0
31	728	1420.9	0
31	728	1421	0
31	728	1421.1	0
31	728	1421.2	0
31	728	1421.3	0
31	728	1421.4	0
31	728	1421.5	0
31	728	1421.6	0
31	728	1421.7	0
31	728	1421.8	0
31	728	1421.9	0
31	728	1422	0
31	728	1422.1	0
31	728	1422.2	0
31	728	1422.3	0
31	728	1422.4	0
31	728	1422.5	0
31	728	1422.6	0
31	728	1422.7	0
31	728	1422.8	0
31	728	1422.9	0
31	728	1423	0
31	728	1423.1	0
31	728	1423.2	0
31	728	1423.3	0
31	728	1423.4	0
31	728	1423.5	0
31	728	1423.6	0
31	728	1423.7	0
31	728	1423.8	0
31	728	1423.9	0
31	728	1424	0
31	728	1424.1	0
31	728	1424.2	0
31	728	1424.3	0
31	728	1424.4	0
31	728	1424.5	0
31	728	1424.6	0
31	728	1424.7	0
31	728	1424.8	0
31	728	1424.9	0
31	728	1425	0
31	728	1425.1	0
31	728	1425.2	0
31	728	1425.3	0
31	728	1425.4	0
31	728	1425.5	0
31	728	1425.6	0
31	728	1425.7	0
31	728	1425.8	0
31	728	1425.9	0
31	728	1426	0
31	728	1426.1	0
31	728	1426.2	0
31	728	1426.3	0
31	728	1426.4	0
31	728	1426.5	0
31	728	1426.6	0
31	728	1426.7	0
31	728	1426.8	0
31	728	1426.9	0
31	728	1427	0
31	728	1427.1	0
31	728	1427.2	0
31	728	1427.3	0
31	728	1427.4	0
31	728	1427.5	0
31	728	1427.6	0
31	728	1427.7	0
31	728	1427.8	0
31	728	1427.9	0
31	728	1428	0
31	728	1428.1	0
31	728	1428.2	0
31	728	1428.3	0
31	728	1428.4	0
31	728	1428.5	0
31	728	1428.6	0
31	728	1428.7	0
31	728	1428.8	0
31	728	1428.9	0
31	728	1429	0
31	728	1429.1	0
31	728	1429.2	0
31	728	1429.3	0
31	728	1429.4	0
31	728	1429.5	0
31	728	1429.6	0
31	728	1429.7	0
31	728	1429.8	0
31	728	1429.9	0
31	728	1430	0
31	728	1430.1	0
31	728	1430.2	0
31	728	1430.3	0
31	728	1430.4	0
31	728	1430.5	0
31	728	1430.6	0
31	728	1430.7	0
31	728	1430.8	0
31	728	1430.9	0
31	728	1431	0
31	728	1431.1	0
31	728	1431.2	0
31	728	1431.3	0
31	728	1431.4	0
31	728	1431.5	0
31	728	1431.6	0
31	728	1431.7	0
31	728	1431.8	0
31	728	1431.9	0
31	728	1432	0
31	728	1432.1	0
31	728	1432.2	0
31	728	1432.3	0
31	728	1432.4	0
31	728	1432.5	0
31	728	1432.6	0
31	728	1432.7	0
31	728	1432.8	0
31	728	1432.9	0
31	728	1433	0
31	728	1433.1	0
31	728	1433.2	0
31	728	1433.3	0
31	728	1433.4	0
31	728	1433.5	0
31	728	1433.6	0
31	728	1433.7	0
31	728	1433.8	0
31	728	1433.9	0
31	728	1434	0
31	728	1434.1	0
31	728	1434.2	0
31	728	1434.3	0
31	728	1434.4	0
31	728	1434.5	0
31	728	1434.6	0
31	728	1434.7	0
31	728	1434.8	0
31	728	1434.9	0
31	728	1435	0
31	728	1435.1	0
31	728	1435.2	0
31	728	1435.3	0
31	728	1435.4	0
31	728	1435.5	0
31	728	1435.6	0
31	728	1435.7	0
31	728	1435.8	0
31	728	1435.9	0
31	728	1436	0
31	728	1436.1	0
31	728	1436.2	0
31	728	1436.3	0
31	728	1436.4	0
31	728	1436.5	0
31	728	1436.6	0
31	728	1436.7	0
31	728	1436.8	0
31	728	1436.9	0
31	728	1437	0
31	728	1437.1	0
31	728	1437.2	0
31	728	1437.3	0
31	728	1437.4	0
31	728	1437.5	0
31	728	1437.6	0
31	728	1437.7	0
31	728	1437.8	0
31	728	1437.9	0
31	728	1438	0
31	728	1438.1	0
31	728	1438.2	0
31	728	1438.3	0
31	728	1438.4	0
31	728	1438.5	0
31	728	1438.6	0
31	728	1438.7	0
31	728	1438.8	0
31	728	1438.9	0
31	728	1439	0
31	728	1439.1	0
31	728	1439.2	0
31	728	1439.3	0
31	728	1439.4	0
31	728	1439.5	0
31	728	1439.6	0
31	728	1439.7	0
31	728	1439.8	0
31	728	1439.9	0
31	728	1440	0
31	728	1440.1	0
31	728	1440.2	0
31	728	1440.3	0
31	728	1440.4	0
31	728	1440.5	0
31	728	1440.6	0
31	728	1440.7	0
31	728	1440.8	0
31	728	1440.9	0
31	728	1441	0
31	728	1441.1	0
31	728	1441.2	0
31	728	1441.3	0
31	728	1441.4	0
31	728	1441.5	0
31	728	1441.6	0
31	728	1441.7	0
31	728	1441.8	0
31	728	1441.9	0
31	728	1442	0
31	728	1442.1	0
31	728	1442.2	0
31	728	1442.3	0
31	728	1442.4	0
31	728	1442.5	0
31	728	1442.6	0
31	728	1442.7	0
31	728	1442.8	0
31	728	1442.9	0
31	728	1443	0
31	728	1443.1	0
31	728	1443.2	0
31	728	1443.3	0
31	728	1443.4	0
31	728	1443.5	0
31	728	1443.6	0
31	728	1443.7	0
31	728	1443.8	0
31	728	1443.9	0
31	728	1444	0
31	728	1444.1	0
31	728	1444.2	0
31	728	1444.3	0
31	728	1444.4	0
31	728	1444.5	0
31	728	1444.6	0
31	728	1444.7	0
31	728	1444.8	0
31	728	1444.9	0
31	728	1445	0
31	728	1445.1	0
31	728	1445.2	0
31	728	1445.3	0
31	728	1445.4	0
31	728	1445.5	0
31	728	1445.6	0
31	728	1445.7	0
31	728	1445.8	0
31	728	1445.9	0
31	728	1446	0
31	728	1446.1	0
31	728	1446.2	0
31	728	1446.3	0
31	728	1446.4	0
31	728	1446.5	0
31	728	1446.6	0
31	728	1446.7	0
31	728	1446.8	0
31	728	1446.9	0
31	728	1447	0
31	728	1447.1	0
31	728	1447.2	0
31	728	1447.3	0
31	728	1447.4	0
31	728	1447.5	0
31	728	1447.6	0
31	728	1447.7	0
31	728	1447.8	0
31	728	1447.9	0
31	728	1448	0
31	728	1448.1	0
31	728	1448.2	0
31	728	1448.3	0
31	728	1448.4	0
31	728	1448.5	0
31	728	1448.6	0
31	728	1448.7	0
31	728	1448.8	0
31	728	1448.9	0
31	728	1449	0
31	728	1449.01926742036	0

