version 3
run General-0-20250609-18:55:38-6106
attr configname General
attr datetime 20250609-18:55:38
attr datetimef 20250609-185538
attr experiment General
attr inifile omnetpp.ini
attr iterationvars "$0=\"avg\""
attr iterationvarsd avg
attr iterationvarsf avg-
attr measurement "$0=\"avg\""
attr network DroneNetwork
attr processid 6106
attr repetition 0
attr replication #0
attr resultdir results
attr runnumber 0
attr seedset 0
config image-path ../inet4.4/images
config network DroneNetwork
config **.maxTransmissionDuration 4s
config **.energyDetection -110dBm
config **.updateInterval 1s
config **.radio.radioMediumModule "\"LoRaMedium\""
config **.displayEventlogMessages true
config *.**.verbose true
config **.gw[*].numUdpApps 1
config **.gw[0].udpApp[0].localPort 2000
config **.gw[0].udpApp[0].destPort 1000
config **.gw[0].udpApp[0].destAddresses "\"networkServer\""
config **.networkServer.numApps 1
config **.networkServer.app[0].typename NetworkServerApp
config **.networkServer.app[0].localPort 1000
config **.networkServer.app[0].destPort 2000
config **.networkServer.app[0].destAddresses "\"gw[0]\""
config **.vector-recording true
config rng-class cMersenneTwister
config **.loRaGW[*].numUdpApps 1
config **.loRaGW[0].packetForwarder.localPort 2000
config **.loRaGW[0].packetForwarder.destPort 1000
config **.loRaGW[0].packetForwarder.destAddresses "\"networkServer\""
config **.loRaGW[0].packetForwarder.indexNumber 0
config **.networkServer.**.evaluateADRinServer true
config **.networkServer.app[0].adrMethod "\"avg\""
config **.numberOfPacketsToSend 0
config sim-time-limit 1d
config simtime-resolution -11
config repeat 30
config **.timeToFirstPacket uniform(0s,1s)
config **.timeToNextPacket exponential(1s)
config **.alohaChannelModel false
config **.numberOfNodes 10
config **.constraintAreaMinX 0m
config **.constraintAreaMinY 0m
config **.constraintAreaMinZ 0m
config **.constraintAreaMaxX 600m
config **.constraintAreaMaxY 600m
config **.constraintAreaMaxZ 0m
config *.loRaGW[0].numApps 1
config *.loRaGW[0].app[0].typename SimpleLoRaApp
config *.loRaGW[0].app[0].destAddresses "\"Drone1\""
config *.loRaGW[0].app[0].destPort 4000
config *.loRaGW[0].app[0].messageLength 100B
config *.loRaGW[0].app[0].sendInterval exponential(1s)
config **.Drone[*].numApps 1
config **.Drone[*].app[0].typename SimpleLoRaApp
config **.Drone[*].app[0].destAddresses "\"loRaGW[0]\""
config **.Drone[*].app[0].destPort 4000
config **.Drone[*].app[0].messageLength 100B
config **.Drone[*].app[0].timeToFirstPacket uniform(0s,1s)
config **.Drone[*].app[0].timeToNextPacket exponential(1s)
config **.Drone[*].LoRaNic.radio.typename LoraRadio
config **.Drone[*].mac.typename LoraMac
config **.Drone[*].mobility.typename TurtleMobility
config **.Drone[*].mobility.turtleScript "xmldoc(\"turtle1.xml\", \"movements//movement[@id='1']\")"
config **.Drone1.**.initialX 200m
config **.Drone1.**.initialY 200m
config **.Drone1.**initialLoRaSF 12
config **.Drone1.**initialLoRaTP 14dBm
config **.Drone1.**initialLoRaBW "125 kHz"
config **.Drone1.**initialLoRaCR 4
config **.Drone1.**.initFromDisplayString false
config **.Drone1.**.evaluateADRinNode true
config **.Drone2.**.initialX 200m
config **.Drone2.**.initialY 200m
config **.Drone2.**initialLoRaSF 12
config **.Drone2.**initialLoRaTP 14dBm
config **.Drone2.**initialLoRaBW "125 kHz"
config **.Drone2.**initialLoRaCR 4
config **.Drone2.**.initFromDisplayString false
config **.Drone2.**.evaluateADRinNode true
config **.Drone3.**.initialX 200m
config **.Drone3.**.initialY 200m
config **.Drone3.**initialLoRaSF 12
config **.Drone3.**initialLoRaTP 14dBm
config **.Drone3.**initialLoRaBW "125 kHz"
config **.Drone3.**initialLoRaCR 4
config **.Drone3.**.initFromDisplayString false
config **.Drone3.**.evaluateADRinNode true
config **.Drone4.**.initialX 200m
config **.Drone4.**.initialY 200m
config **.Drone4.**initialLoRaSF 12
config **.Drone4.**initialLoRaTP 14dBm
config **.Drone4.**initialLoRaBW "125 kHz"
config **.Drone4.**initialLoRaCR 4
config **.Drone4.**.initFromDisplayString false
config **.Drone4.**.evaluateADRinNode true
config **.Drone5.**.initialX 200m
config **.Drone5.**.initialY 200m
config **.Drone5.**initialLoRaSF 12
config **.Drone5.**initialLoRaTP 14dBm
config **.Drone5.**initialLoRaBW "125 kHz"
config **.Drone5.**initialLoRaCR 4
config **.Drone5.**.initFromDisplayString false
config **.Drone5.**.evaluateADRinNode true
config **.Drone6.**.initialX 200m
config **.Drone6.**.initialY 200m
config **.Drone6.**initialLoRaSF 12
config **.Drone6.**initialLoRaTP 14dBm
config **.Drone6.**initialLoRaBW "125 kHz"
config **.Drone6.**initialLoRaCR 4
config **.Drone6.**.initFromDisplayString false
config **.Drone6.**.evaluateADRinNode true
config **.Drone7.**.initialX 200m
config **.Drone7.**.initialY 200m
config **.Drone7.**initialLoRaSF 12
config **.Drone7.**initialLoRaTP 14dBm
config **.Drone7.**initialLoRaBW "125 kHz"
config **.Drone7.**initialLoRaCR 4
config **.Drone7.**.initFromDisplayString false
config **.Drone7.**.evaluateADRinNode true
config **.Drone8.**.initialX 200m
config **.Drone8.**.initialY 200m
config **.Drone8.**initialLoRaSF 12
config **.Drone8.**initialLoRaTP 14dBm
config **.Drone8.**initialLoRaBW "125 kHz"
config **.Drone8.**initialLoRaCR 4
config **.Drone8.**.initFromDisplayString false
config **.Drone8.**.evaluateADRinNode true
config **.Drone9.**.initialX 200m
config **.Drone9.**.initialY 200m
config **.Drone9.**initialLoRaSF 12
config **.Drone9.**initialLoRaTP 14dBm
config **.Drone9.**initialLoRaBW "125 kHz"
config **.Drone9.**initialLoRaCR 4
config **.Drone9.**.initFromDisplayString false
config **.Drone9.**.evaluateADRinNode true
config **.Drone10.**.initialX 200m
config **.Drone10.**.initialY 200m
config **.Drone10.**initialLoRaSF 12
config **.Drone10.**initialLoRaTP 14dBm
config **.Drone10.**initialLoRaBW "125 kHz"
config **.Drone10.**initialLoRaCR 4
config **.Drone10.**.initFromDisplayString false
config **.Drone10.**.evaluateADRinNode true
config **.numberOfGateways 1
config **.loRaGW[0].**.initialX 250.00m
config **.loRaGW[0].**.initialY 220.00m
config **.LoRaGWNic.radio.iAmGateway true
config **.loRaGW[*].**.initFromDisplayString false
config **.Drone[*].LoRaNic.radio.energyConsumer.typename LoRaEnergyConsumer
config **.Drone[*].**.energySourceModule "\"^.IdealEpEnergyStorage\""
config **.Drone[*].LoRaNic.radio.energyConsumer.configFile "xmldoc(\"energyConsumptionParameters.xml\")"
config **.sigma 3.57
config LoRaNetworkTest.**.radio.separateTransmissionParts false
config LoRaNetworkTest.**.radio.separateReceptionParts false
config **.ipv4Delayer.config "xmldoc(\"cloudDelays.xml\")"
config **.radio.radioMediumModule "\"LoRaMedium\""
config **.LoRaMedium.pathLossType "\"LoRaLogNormalShadowing\""
config **.minInterferenceTime 0s
config **.displayAddresses false
config **.LoRaMedium.mediumLimitCacheType "\"LoRaMediumCache\""
config **.LoRaMedium.rangeFilter "\"communicationRange\""
config **.LoRaMedium.neighborCacheType "\"LoRaNeighborCache\""
config **.LoRaMedium.neighborCache.range 546m
config **.LoRaMedium.neighborCache.refillPeriod 3000s

vector 0 DroneNetwork.loRaGW[0].udp passedUpPk:vector(count) ETV
attr interpolationmode none
attr recordingmode vector(count)
attr source packetSentToUpper
attr title "packets passed up, count"
vector 1 DroneNetwork.loRaGW[0].udp droppedPkWrongPort:vector(count) ETV
attr interpolationmode none
attr recordingmode vector(count)
attr source packetDropReasonIsNoPortFound(packetDropped)
attr title "packets dropped (wrong port), count"
vector 2 DroneNetwork.loRaGW[0].udp droppedPkBadChecksum:vector(count) ETV
attr interpolationmode none
attr recordingmode vector(count)
attr source packetDropReasonIsIncorrectlyReceived(packetDropped)
attr title "packets dropped (checksum error), count"
vector 3 DroneNetwork.networkServer.udp passedUpPk:vector(count) ETV
attr interpolationmode none
attr recordingmode vector(count)
attr source packetSentToUpper
attr title "packets passed up, count"
vector 4 DroneNetwork.networkServer.udp droppedPkWrongPort:vector(count) ETV
attr interpolationmode none
attr recordingmode vector(count)
attr source packetDropReasonIsNoPortFound(packetDropped)
attr title "packets dropped (wrong port), count"
vector 5 DroneNetwork.networkServer.udp droppedPkBadChecksum:vector(count) ETV
attr interpolationmode none
attr recordingmode vector(count)
attr source packetDropReasonIsIncorrectlyReceived(packetDropped)
attr title "packets dropped (checksum error), count"
vector 6 DroneNetwork.internetCloud.ppp[0].ppp transmissionState:vector ETV
attr interpolationmode sample-hold
attr recordingmode vector
attr source transmissionStateChanged
attr title "tx state"
vector 7 DroneNetwork.internetCloud.ppp[1].ppp transmissionState:vector ETV
attr interpolationmode sample-hold
attr recordingmode vector
attr source transmissionStateChanged
attr title "tx state"
vector 8 DroneNetwork.gwRouter[0].ppp[0].ppp transmissionState:vector ETV
attr interpolationmode sample-hold
attr recordingmode vector
attr source transmissionStateChanged
attr title "tx state"
vector 9 DroneNetwork.nsRouter.ppp[0].ppp transmissionState:vector ETV
attr interpolationmode sample-hold
attr recordingmode vector
attr source transmissionStateChanged
attr title "tx state"
vector 10 DroneNetwork.Drone1.LoRaNic.radio radioMode:vector ETV
attr interpolationmode sample-hold
attr recordingmode vector
attr source radioModeChanged
attr title "Radio mode"
vector 11 DroneNetwork.Drone2.LoRaNic.radio radioMode:vector ETV
attr interpolationmode sample-hold
attr recordingmode vector
attr source radioModeChanged
attr title "Radio mode"
vector 12 DroneNetwork.Drone3.LoRaNic.radio radioMode:vector ETV
attr interpolationmode sample-hold
attr recordingmode vector
attr source radioModeChanged
attr title "Radio mode"
vector 13 DroneNetwork.Drone4.LoRaNic.radio radioMode:vector ETV
attr interpolationmode sample-hold
attr recordingmode vector
attr source radioModeChanged
attr title "Radio mode"
vector 14 DroneNetwork.Drone5.LoRaNic.radio radioMode:vector ETV
attr interpolationmode sample-hold
attr recordingmode vector
attr source radioModeChanged
attr title "Radio mode"
vector 15 DroneNetwork.Drone6.LoRaNic.radio radioMode:vector ETV
attr interpolationmode sample-hold
attr recordingmode vector
attr source radioModeChanged
attr title "Radio mode"
vector 16 DroneNetwork.Drone7.LoRaNic.radio radioMode:vector ETV
attr interpolationmode sample-hold
attr recordingmode vector
attr source radioModeChanged
attr title "Radio mode"
vector 17 DroneNetwork.Drone8.LoRaNic.radio radioMode:vector ETV
attr interpolationmode sample-hold
attr recordingmode vector
attr source radioModeChanged
attr title "Radio mode"
vector 18 DroneNetwork.Drone9.LoRaNic.radio radioMode:vector ETV
attr interpolationmode sample-hold
attr recordingmode vector
attr source radioModeChanged
attr title "Radio mode"
vector 19 DroneNetwork.Drone10.LoRaNic.radio radioMode:vector ETV
attr interpolationmode sample-hold
attr recordingmode vector
attr source radioModeChanged
attr title "Radio mode"
vector 20 DroneNetwork.loRaGW[0].LoRaGWNic.radio radioMode:vector ETV
attr interpolationmode sample-hold
attr recordingmode vector
attr source radioModeChanged
attr title "Radio mode"
vector 21 DroneNetwork.loRaGW[0].LoRaGWNic.radio receptionState:vector ETV
attr interpolationmode sample-hold
attr recordingmode vector
attr source receptionStateChanged
attr title "Radio reception state"
vector 22 DroneNetwork.loRaGW[0].LoRaGWNic.radio transmissionState:vector ETV
attr interpolationmode sample-hold
attr recordingmode vector
attr source transmissionStateChanged
attr title "Radio transmission state"
0	0	0	0
1	0	0	0
2	0	0	0
3	0	0	0
4	0	0	0
5	0	0	0
6	0	0	0
7	0	0	0
8	0	0	0
9	0	0	0
10	0	0	0
10	0	0	0
10	0	0	1
11	0	0	0
11	0	0	0
11	0	0	1
12	0	0	0
12	0	0	0
12	0	0	1
13	0	0	0
13	0	0	0
13	0	0	1
14	0	0	0
14	0	0	0
14	0	0	1
15	0	0	0
15	0	0	0
15	0	0	1
16	0	0	0
16	0	0	0
16	0	0	1
17	0	0	0
17	0	0	0
17	0	0	1
18	0	0	0
18	0	0	0
18	0	0	1
19	0	0	0
19	0	0	0
19	0	0	1
20	0	0	0
20	0	0	0
20	0	0	4
21	0	0	1
22	0	0	1
vector 23 DroneNetwork.Drone1.LoRaNic.queue outgoingDataRate:vector ETV
attr interpolationmode linear
attr recordingmode vector
attr source throughput(packetPulled)
attr title "outgoing datarate"
attr unit bps
vector 24 DroneNetwork.Drone1.LoRaNic.queue incomingDataRate:vector ETV
attr interpolationmode linear
attr recordingmode vector
attr source throughput(packetPushStarted)
attr title "incoming datarate"
attr unit bps
vector 25 DroneNetwork.Drone2.LoRaNic.queue outgoingDataRate:vector ETV
attr interpolationmode linear
attr recordingmode vector
attr source throughput(packetPulled)
attr title "outgoing datarate"
attr unit bps
vector 26 DroneNetwork.Drone2.LoRaNic.queue incomingDataRate:vector ETV
attr interpolationmode linear
attr recordingmode vector
attr source throughput(packetPushStarted)
attr title "incoming datarate"
attr unit bps
vector 27 DroneNetwork.Drone3.LoRaNic.queue outgoingDataRate:vector ETV
attr interpolationmode linear
attr recordingmode vector
attr source throughput(packetPulled)
attr title "outgoing datarate"
attr unit bps
vector 28 DroneNetwork.Drone3.LoRaNic.queue incomingDataRate:vector ETV
attr interpolationmode linear
attr recordingmode vector
attr source throughput(packetPushStarted)
attr title "incoming datarate"
attr unit bps
vector 29 DroneNetwork.Drone4.LoRaNic.queue outgoingDataRate:vector ETV
attr interpolationmode linear
attr recordingmode vector
attr source throughput(packetPulled)
attr title "outgoing datarate"
attr unit bps
vector 30 DroneNetwork.Drone4.LoRaNic.queue incomingDataRate:vector ETV
attr interpolationmode linear
attr recordingmode vector
attr source throughput(packetPushStarted)
attr title "incoming datarate"
attr unit bps
vector 31 DroneNetwork.Drone5.LoRaNic.queue outgoingDataRate:vector ETV
attr interpolationmode linear
attr recordingmode vector
attr source throughput(packetPulled)
attr title "outgoing datarate"
attr unit bps
vector 32 DroneNetwork.Drone5.LoRaNic.queue incomingDataRate:vector ETV
attr interpolationmode linear
attr recordingmode vector
attr source throughput(packetPushStarted)
attr title "incoming datarate"
attr unit bps
vector 33 DroneNetwork.Drone6.LoRaNic.queue outgoingDataRate:vector ETV
attr interpolationmode linear
attr recordingmode vector
attr source throughput(packetPulled)
attr title "outgoing datarate"
attr unit bps
vector 34 DroneNetwork.Drone6.LoRaNic.queue incomingDataRate:vector ETV
attr interpolationmode linear
attr recordingmode vector
attr source throughput(packetPushStarted)
attr title "incoming datarate"
attr unit bps
vector 35 DroneNetwork.Drone7.LoRaNic.queue outgoingDataRate:vector ETV
attr interpolationmode linear
attr recordingmode vector
attr source throughput(packetPulled)
attr title "outgoing datarate"
attr unit bps
vector 36 DroneNetwork.Drone7.LoRaNic.queue incomingDataRate:vector ETV
attr interpolationmode linear
attr recordingmode vector
attr source throughput(packetPushStarted)
attr title "incoming datarate"
attr unit bps
vector 37 DroneNetwork.Drone8.LoRaNic.queue outgoingDataRate:vector ETV
attr interpolationmode linear
attr recordingmode vector
attr source throughput(packetPulled)
attr title "outgoing datarate"
attr unit bps
vector 38 DroneNetwork.Drone8.LoRaNic.queue incomingDataRate:vector ETV
attr interpolationmode linear
attr recordingmode vector
attr source throughput(packetPushStarted)
attr title "incoming datarate"
attr unit bps
vector 39 DroneNetwork.Drone9.LoRaNic.queue outgoingDataRate:vector ETV
attr interpolationmode linear
attr recordingmode vector
attr source throughput(packetPulled)
attr title "outgoing datarate"
attr unit bps
vector 40 DroneNetwork.Drone9.LoRaNic.queue incomingDataRate:vector ETV
attr interpolationmode linear
attr recordingmode vector
attr source throughput(packetPushStarted)
attr title "incoming datarate"
attr unit bps
vector 41 DroneNetwork.Drone10.LoRaNic.queue outgoingDataRate:vector ETV
attr interpolationmode linear
attr recordingmode vector
attr source throughput(packetPulled)
attr title "outgoing datarate"
attr unit bps
vector 42 DroneNetwork.Drone10.LoRaNic.queue incomingDataRate:vector ETV
attr interpolationmode linear
attr recordingmode vector
attr source throughput(packetPushStarted)
attr title "incoming datarate"
attr unit bps
vector 43 DroneNetwork.loRaGW[0].eth[0].queue outgoingDataRate:vector ETV
attr interpolationmode linear
attr recordingmode vector
attr source throughput(packetPulled)
attr title "outgoing datarate"
attr unit bps
vector 44 DroneNetwork.loRaGW[0].eth[0].queue incomingDataRate:vector ETV
attr interpolationmode linear
attr recordingmode vector
attr source throughput(packetPushStarted)
attr title "incoming datarate"
attr unit bps
vector 45 DroneNetwork.networkServer.eth[0].queue outgoingDataRate:vector ETV
attr interpolationmode linear
attr recordingmode vector
attr source throughput(packetPulled)
attr title "outgoing datarate"
attr unit bps
vector 46 DroneNetwork.networkServer.eth[0].queue incomingDataRate:vector ETV
attr interpolationmode linear
attr recordingmode vector
attr source throughput(packetPushStarted)
attr title "incoming datarate"
attr unit bps
vector 47 DroneNetwork.internetCloud.ppp[0].queue outgoingDataRate:vector ETV
attr interpolationmode linear
attr recordingmode vector
attr source throughput(packetPulled)
attr title "outgoing datarate"
attr unit bps
vector 48 DroneNetwork.internetCloud.ppp[0].queue incomingDataRate:vector ETV
attr interpolationmode linear
attr recordingmode vector
attr source throughput(packetPushStarted)
attr title "incoming datarate"
attr unit bps
vector 49 DroneNetwork.internetCloud.ppp[1].queue outgoingDataRate:vector ETV
attr interpolationmode linear
attr recordingmode vector
attr source throughput(packetPulled)
attr title "outgoing datarate"
attr unit bps
vector 50 DroneNetwork.internetCloud.ppp[1].queue incomingDataRate:vector ETV
attr interpolationmode linear
attr recordingmode vector
attr source throughput(packetPushStarted)
attr title "incoming datarate"
attr unit bps
vector 51 DroneNetwork.gwRouter[0].ppp[0].queue outgoingDataRate:vector ETV
attr interpolationmode linear
attr recordingmode vector
attr source throughput(packetPulled)
attr title "outgoing datarate"
attr unit bps
vector 52 DroneNetwork.gwRouter[0].ppp[0].queue incomingDataRate:vector ETV
attr interpolationmode linear
attr recordingmode vector
attr source throughput(packetPushStarted)
attr title "incoming datarate"
attr unit bps
vector 53 DroneNetwork.gwRouter[0].eth[0].queue outgoingDataRate:vector ETV
attr interpolationmode linear
attr recordingmode vector
attr source throughput(packetPulled)
attr title "outgoing datarate"
attr unit bps
vector 54 DroneNetwork.gwRouter[0].eth[0].queue incomingDataRate:vector ETV
attr interpolationmode linear
attr recordingmode vector
attr source throughput(packetPushStarted)
attr title "incoming datarate"
attr unit bps
vector 55 DroneNetwork.nsRouter.ppp[0].queue outgoingDataRate:vector ETV
attr interpolationmode linear
attr recordingmode vector
attr source throughput(packetPulled)
attr title "outgoing datarate"
attr unit bps
vector 56 DroneNetwork.nsRouter.ppp[0].queue incomingDataRate:vector ETV
attr interpolationmode linear
attr recordingmode vector
attr source throughput(packetPushStarted)
attr title "incoming datarate"
attr unit bps
vector 57 DroneNetwork.nsRouter.eth[0].queue outgoingDataRate:vector ETV
attr interpolationmode linear
attr recordingmode vector
attr source throughput(packetPulled)
attr title "outgoing datarate"
attr unit bps
vector 58 DroneNetwork.nsRouter.eth[0].queue incomingDataRate:vector ETV
attr interpolationmode linear
attr recordingmode vector
attr source throughput(packetPushStarted)
attr title "incoming datarate"
attr unit bps
23	1909	0.1	0
23	1909	0.2	0
23	1909	0.3	0
23	1909	0.4	0
23	1909	0.5	0
23	1909	0.6	0
23	1909	0.7	0
23	1909	0.8	0
23	1909	0.9	0
23	1909	1	0
23	1909	1.1	0
23	1909	1.2	0
23	1909	1.3	0
23	1909	1.4	0
23	1909	1.5	0
23	1909	1.6	0
23	1909	1.7	0
23	1909	1.8	0
23	1909	1.9	0
23	1909	2	0
23	1909	2.1	0
23	1909	2.2	0
23	1909	2.3	0
23	1909	2.4	0
23	1909	2.5	0
23	1909	2.6	0
23	1909	2.7	0
23	1909	2.8	0
23	1909	2.9	0
23	1909	3	0
23	1909	3.1	0
23	1909	3.2	0
23	1909	3.3	0
23	1909	3.4	0
23	1909	3.5	0
23	1909	3.6	0
23	1909	3.7	0
23	1909	3.8	0
23	1909	3.9	0
23	1909	4	0
23	1909	4.1	0
23	1909	4.2	0
23	1909	4.3	0
23	1909	4.4	0
23	1909	4.5	0
23	1909	4.6	0
23	1909	4.7	0
23	1909	4.8	0
23	1909	4.9	0
23	1909	5	0
23	1909	5.1	0
23	1909	5.2	0
23	1909	5.3	0
23	1909	5.4	0
23	1909	5.5	0
23	1909	5.6	0
23	1909	5.7	0
23	1909	5.8	0
23	1909	5.9	0
23	1909	6	0
23	1909	6.1	0
23	1909	6.2	0
23	1909	6.3	0
23	1909	6.4	0
23	1909	6.5	0
23	1909	6.6	0
23	1909	6.7	0
23	1909	6.8	0
23	1909	6.9	0
23	1909	7	0
23	1909	7.1	0
23	1909	7.2	0
23	1909	7.3	0
23	1909	7.4	0
23	1909	7.5	0
23	1909	7.6	0
23	1909	7.7	0
23	1909	7.8	0
23	1909	7.9	0
23	1909	8	0
23	1909	8.1	0
23	1909	8.2	0
23	1909	8.3	0
23	1909	8.4	0
23	1909	8.5	0
23	1909	8.6	0
23	1909	8.7	0
23	1909	8.8	0
23	1909	8.9	0
23	1909	9	0
23	1909	9.1	0
23	1909	9.2	0
23	1909	9.3	0
23	1909	9.4	0
23	1909	9.5	0
23	1909	9.6	0
23	1909	9.7	0
23	1909	9.8	0
23	1909	9.9	0
23	1909	10	0
23	1909	10.1	0
23	1909	10.2	0
23	1909	10.3	0
23	1909	10.4	0
23	1909	10.5	0
23	1909	10.6	0
23	1909	10.7	0
23	1909	10.8	0
23	1909	10.9	0
23	1909	11	0
23	1909	11.1	0
23	1909	11.2	0
23	1909	11.3	0
23	1909	11.4	0
23	1909	11.5	0
23	1909	11.6	0
23	1909	11.7	0
23	1909	11.8	0
23	1909	11.9	0
23	1909	12	0
23	1909	12.1	0
23	1909	12.2	0
23	1909	12.3	0
23	1909	12.4	0
23	1909	12.5	0
23	1909	12.6	0
23	1909	12.7	0
23	1909	12.8	0
23	1909	12.9	0
23	1909	13	0
23	1909	13.1	0
23	1909	13.2	0
23	1909	13.3	0
23	1909	13.4	0
23	1909	13.5	0
23	1909	13.6	0
23	1909	13.7	0
23	1909	13.8	0
23	1909	13.9	0
23	1909	14	0
23	1909	14.1	0
23	1909	14.2	0
23	1909	14.3	0
23	1909	14.4	0
23	1909	14.5	0
23	1909	14.6	0
23	1909	14.7	0
23	1909	14.8	0
23	1909	14.9	0
23	1909	15	0
23	1909	15.1	0
23	1909	15.2	0
23	1909	15.3	0
23	1909	15.4	0
23	1909	15.5	0
23	1909	15.6	0
23	1909	15.7	0
23	1909	15.8	0
23	1909	15.9	0
23	1909	16	0
23	1909	16.1	0
23	1909	16.2	0
23	1909	16.3	0
23	1909	16.4	0
23	1909	16.5	0
23	1909	16.6	0
23	1909	16.7	0
23	1909	16.8	0
23	1909	16.9	0
23	1909	17	0
23	1909	17.1	0
23	1909	17.2	0
23	1909	17.3	0
23	1909	17.4	0
23	1909	17.5	0
23	1909	17.6	0
23	1909	17.7	0
23	1909	17.8	0
23	1909	17.9	0
23	1909	18	0
23	1909	18.1	0
23	1909	18.2	0
23	1909	18.3	0
23	1909	18.4	0
23	1909	18.5	0
23	1909	18.6	0
23	1909	18.7	0
23	1909	18.8	0
23	1909	18.9	0
23	1909	19	0
23	1909	19.1	0
23	1909	19.2	0
23	1909	19.3	0
23	1909	19.4	0
23	1909	19.5	0
23	1909	19.6	0
23	1909	19.7	0
23	1909	19.8	0
23	1909	19.9	0
23	1909	20	0
23	1909	20.1	0
23	1909	20.2	0
23	1909	20.3	0
23	1909	20.4	0
23	1909	20.5	0
23	1909	20.6	0
23	1909	20.7	0
23	1909	20.8	0
23	1909	20.9	0
23	1909	21	0
23	1909	21.1	0
23	1909	21.2	0
23	1909	21.3	0
23	1909	21.4	0
23	1909	21.5	0
23	1909	21.6	0
23	1909	21.7	0
23	1909	21.8	0
23	1909	21.9	0
23	1909	22	0
23	1909	22.1	0
23	1909	22.2	0
23	1909	22.3	0
23	1909	22.4	0
23	1909	22.5	0
23	1909	22.6	0
23	1909	22.7	0
23	1909	22.8	0
23	1909	22.9	0
23	1909	23	0
23	1909	23.1	0
23	1909	23.2	0
23	1909	23.3	0
23	1909	23.4	0
23	1909	23.5	0
23	1909	23.6	0
23	1909	23.7	0
23	1909	23.8	0
23	1909	23.9	0
23	1909	24	0
23	1909	24.1	0
23	1909	24.2	0
23	1909	24.3	0
23	1909	24.4	0
23	1909	24.5	0
23	1909	24.6	0
23	1909	24.7	0
23	1909	24.8	0
23	1909	24.9	0
23	1909	25	0
23	1909	25.1	0
23	1909	25.2	0
23	1909	25.3	0
23	1909	25.4	0
23	1909	25.5	0
23	1909	25.6	0
23	1909	25.7	0
23	1909	25.8	0
23	1909	25.9	0
23	1909	26	0
23	1909	26.1	0
23	1909	26.2	0
23	1909	26.3	0
23	1909	26.4	0
23	1909	26.5	0
23	1909	26.6	0
23	1909	26.7	0
23	1909	26.8	0
23	1909	26.9	0
23	1909	27	0
23	1909	27.1	0
23	1909	27.2	0
23	1909	27.3	0
23	1909	27.4	0
23	1909	27.5	0
23	1909	27.6	0
23	1909	27.7	0
23	1909	27.8	0
23	1909	27.9	0
23	1909	28	0
23	1909	28.1	0
23	1909	28.2	0
23	1909	28.3	0
23	1909	28.4	0
23	1909	28.5	0
23	1909	28.6	0
23	1909	28.7	0
23	1909	28.8	0
23	1909	28.9	0
23	1909	29	0
23	1909	29.1	0
23	1909	29.2	0
23	1909	29.3	0
23	1909	29.4	0
23	1909	29.5	0
23	1909	29.6	0
23	1909	29.7	0
23	1909	29.8	0
23	1909	29.9	0
23	1909	30	0
23	1909	30.1	0
23	1909	30.2	0
23	1909	30.3	0
23	1909	30.4	0
23	1909	30.5	0
23	1909	30.6	0
23	1909	30.7	0
23	1909	30.8	0
23	1909	30.9	0
23	1909	31	0
23	1909	31.1	0
23	1909	31.2	0
23	1909	31.3	0
23	1909	31.4	0
23	1909	31.5	0
23	1909	31.6	0
23	1909	31.7	0
23	1909	31.8	0
23	1909	31.9	0
23	1909	32	0
23	1909	32.1	0
23	1909	32.2	0
23	1909	32.3	0
23	1909	32.4	0
23	1909	32.5	0
23	1909	32.6	0
23	1909	32.7	0
23	1909	32.8	0
23	1909	32.9	0
23	1909	33	0
23	1909	33.1	0
23	1909	33.2	0
23	1909	33.3	0
23	1909	33.4	0
23	1909	33.5	0
23	1909	33.6	0
23	1909	33.7	0
23	1909	33.8	0
23	1909	33.9	0
23	1909	34	0
23	1909	34.1	0
23	1909	34.2	0
23	1909	34.3	0
23	1909	34.4	0
23	1909	34.5	0
23	1909	34.6	0
23	1909	34.7	0
23	1909	34.8	0
23	1909	34.9	0
23	1909	35	0
23	1909	35.1	0
23	1909	35.2	0
23	1909	35.3	0
23	1909	35.4	0
23	1909	35.5	0
23	1909	35.6	0
23	1909	35.7	0
23	1909	35.8	0
23	1909	35.9	0
23	1909	36	0
23	1909	36.1	0
23	1909	36.2	0
23	1909	36.3	0
23	1909	36.4	0
23	1909	36.5	0
23	1909	36.6	0
23	1909	36.7	0
23	1909	36.8	0
23	1909	36.9	0
23	1909	37	0
23	1909	37.1	0
23	1909	37.2	0
23	1909	37.3	0
23	1909	37.4	0
23	1909	37.5	0
23	1909	37.6	0
23	1909	37.7	0
23	1909	37.8	0
23	1909	37.9	0
23	1909	38	0
23	1909	38.1	0
23	1909	38.2	0
23	1909	38.3	0
23	1909	38.4	0
23	1909	38.5	0
23	1909	38.6	0
23	1909	38.7	0
23	1909	38.8	0
23	1909	38.9	0
23	1909	39	0
23	1909	39.1	0
23	1909	39.2	0
23	1909	39.3	0
23	1909	39.4	0
23	1909	39.5	0
23	1909	39.6	0
23	1909	39.7	0
23	1909	39.8	0
23	1909	39.9	0
23	1909	40	0
23	1909	40.1	0
23	1909	40.2	0
23	1909	40.3	0
23	1909	40.4	0
23	1909	40.5	0
23	1909	40.6	0
23	1909	40.7	0
23	1909	40.8	0
23	1909	40.9	0
23	1909	41	0
23	1909	41.1	0
23	1909	41.2	0
23	1909	41.3	0
23	1909	41.4	0
23	1909	41.5	0
23	1909	41.6	0
23	1909	41.7	0
23	1909	41.8	0
23	1909	41.9	0
23	1909	42	0
23	1909	42.1	0
23	1909	42.2	0
23	1909	42.3	0
23	1909	42.4	0
23	1909	42.5	0
23	1909	42.6	0
23	1909	42.7	0
23	1909	42.8	0
23	1909	42.9	0
23	1909	43	0
23	1909	43.1	0
23	1909	43.2	0
23	1909	43.3	0
23	1909	43.4	0
23	1909	43.5	0
23	1909	43.6	0
23	1909	43.7	0
23	1909	43.8	0
23	1909	43.9	0
23	1909	44	0
23	1909	44.1	0
23	1909	44.2	0
23	1909	44.3	0
23	1909	44.4	0
23	1909	44.5	0
23	1909	44.6	0
23	1909	44.7	0
23	1909	44.8	0
23	1909	44.9	0
23	1909	45	0
23	1909	45.1	0
23	1909	45.2	0
23	1909	45.3	0
23	1909	45.4	0
23	1909	45.5	0
23	1909	45.6	0
23	1909	45.7	0
23	1909	45.8	0
23	1909	45.9	0
23	1909	46	0
23	1909	46.1	0
23	1909	46.2	0
23	1909	46.3	0
23	1909	46.4	0
23	1909	46.5	0
23	1909	46.6	0
23	1909	46.7	0
23	1909	46.8	0
23	1909	46.9	0
23	1909	47	0
23	1909	47.1	0
23	1909	47.2	0
23	1909	47.3	0
23	1909	47.4	0
23	1909	47.5	0
23	1909	47.6	0
23	1909	47.7	0
23	1909	47.8	0
23	1909	47.9	0
23	1909	48	0
23	1909	48.1	0
23	1909	48.2	0
23	1909	48.3	0
23	1909	48.4	0
23	1909	48.5	0
23	1909	48.6	0
23	1909	48.7	0
23	1909	48.8	0
23	1909	48.9	0
23	1909	49	0
23	1909	49.1	0
23	1909	49.2	0
23	1909	49.3	0
23	1909	49.4	0
23	1909	49.5	0
23	1909	49.6	0
23	1909	49.7	0
23	1909	49.8	0
23	1909	49.9	0
23	1909	50	0
23	1909	50.1	0
23	1909	50.2	0
23	1909	50.3	0
23	1909	50.4	0
23	1909	50.5	0
23	1909	50.6	0
23	1909	50.7	0
23	1909	50.8	0
23	1909	50.9	0
23	1909	51	0
23	1909	51.1	0
23	1909	51.2	0
23	1909	51.3	0
23	1909	51.4	0
23	1909	51.5	0
23	1909	51.6	0
23	1909	51.7	0
23	1909	51.8	0
23	1909	51.9	0
23	1909	52	0
23	1909	52.1	0
23	1909	52.2	0
23	1909	52.3	0
23	1909	52.4	0
23	1909	52.5	0
23	1909	52.6	0
23	1909	52.7	0
23	1909	52.8	0
23	1909	52.9	0
23	1909	53	0
23	1909	53.1	0
23	1909	53.2	0
23	1909	53.3	0
23	1909	53.4	0
23	1909	53.5	0
23	1909	53.6	0
23	1909	53.7	0
23	1909	53.8	0
23	1909	53.9	0
23	1909	54	0
23	1909	54.1	0
23	1909	54.2	0
23	1909	54.3	0
23	1909	54.4	0
23	1909	54.5	0
23	1909	54.6	0
23	1909	54.7	0
23	1909	54.8	0
23	1909	54.9	0
23	1909	55	0
23	1909	55.1	0
23	1909	55.2	0
23	1909	55.3	0
23	1909	55.4	0
23	1909	55.5	0
23	1909	55.6	0
23	1909	55.7	0
23	1909	55.8	0
23	1909	55.9	0
23	1909	56	0
23	1909	56.1	0
23	1909	56.2	0
23	1909	56.3	0
23	1909	56.4	0
23	1909	56.5	0
23	1909	56.6	0
23	1909	56.7	0
23	1909	56.8	0
23	1909	56.9	0
23	1909	57	0
23	1909	57.1	0
23	1909	57.2	0
23	1909	57.3	0
23	1909	57.4	0
23	1909	57.5	0
23	1909	57.6	0
23	1909	57.7	0
23	1909	57.8	0
23	1909	57.9	0
23	1909	58	0
23	1909	58.1	0
23	1909	58.2	0
23	1909	58.3	0
23	1909	58.4	0
23	1909	58.5	0
23	1909	58.6	0
23	1909	58.7	0
23	1909	58.8	0
23	1909	58.9	0
23	1909	59	0
23	1909	59.1	0
23	1909	59.2	0
23	1909	59.3	0
23	1909	59.4	0
23	1909	59.5	0
23	1909	59.6	0
23	1909	59.7	0
23	1909	59.8	0
23	1909	59.9	0
23	1909	60	0
23	1909	60.1	0
23	1909	60.2	0
23	1909	60.3	0
23	1909	60.4	0
23	1909	60.5	0
23	1909	60.6	0
23	1909	60.7	0
23	1909	60.8	0
23	1909	60.9	0
23	1909	61	0
23	1909	61.1	0
23	1909	61.2	0
23	1909	61.3	0
23	1909	61.4	0
23	1909	61.5	0
23	1909	61.6	0
23	1909	61.7	0
23	1909	61.8	0
23	1909	61.9	0
23	1909	62	0
23	1909	62.1	0
23	1909	62.2	0
23	1909	62.3	0
23	1909	62.4	0
23	1909	62.5	0
23	1909	62.6	0
23	1909	62.7	0
23	1909	62.8	0
23	1909	62.9	0
23	1909	63	0
23	1909	63.1	0
23	1909	63.2	0
23	1909	63.3	0
23	1909	63.4	0
23	1909	63.5	0
23	1909	63.6	0
23	1909	63.7	0
23	1909	63.8	0
23	1909	63.9	0
23	1909	64	0
23	1909	64.1	0
23	1909	64.2	0
23	1909	64.3	0
23	1909	64.4	0
23	1909	64.5	0
23	1909	64.6	0
23	1909	64.7	0
23	1909	64.8	0
23	1909	64.9	0
23	1909	65	0
23	1909	65.1	0
23	1909	65.2	0
23	1909	65.3	0
23	1909	65.4	0
23	1909	65.5	0
23	1909	65.6	0
23	1909	65.7	0
23	1909	65.8	0
23	1909	65.9	0
23	1909	66	0
23	1909	66.1	0
23	1909	66.2	0
23	1909	66.3	0
23	1909	66.4	0
23	1909	66.5	0
23	1909	66.6	0
23	1909	66.7	0
23	1909	66.8	0
23	1909	66.9	0
23	1909	67	0
23	1909	67.1	0
23	1909	67.2	0
23	1909	67.3	0
23	1909	67.4	0
23	1909	67.5	0
23	1909	67.6	0
23	1909	67.7	0
23	1909	67.8	0
23	1909	67.9	0
23	1909	68	0
23	1909	68.1	0
23	1909	68.2	0
23	1909	68.3	0
23	1909	68.4	0
23	1909	68.5	0
23	1909	68.6	0
23	1909	68.7	0
23	1909	68.8	0
23	1909	68.9	0
23	1909	69	0
23	1909	69.1	0
23	1909	69.2	0
23	1909	69.3	0
23	1909	69.4	0
23	1909	69.5	0
23	1909	69.6	0
23	1909	69.7	0
23	1909	69.8	0
23	1909	69.9	0
23	1909	70	0
23	1909	70.1	0
23	1909	70.2	0
23	1909	70.3	0
23	1909	70.4	0
23	1909	70.5	0
23	1909	70.6	0
23	1909	70.7	0
23	1909	70.8	0
23	1909	70.9	0
23	1909	71	0
23	1909	71.1	0
23	1909	71.2	0
23	1909	71.3	0
23	1909	71.4	0
23	1909	71.5	0
23	1909	71.6	0
23	1909	71.7	0
23	1909	71.8	0
23	1909	71.9	0
23	1909	72	0
23	1909	72.1	0
23	1909	72.2	0
23	1909	72.3	0
23	1909	72.4	0
23	1909	72.5	0
23	1909	72.6	0
23	1909	72.7	0
23	1909	72.8	0
23	1909	72.9	0
23	1909	73	0
23	1909	73.1	0
23	1909	73.2	0
23	1909	73.3	0
23	1909	73.4	0
23	1909	73.5	0
23	1909	73.6	0
23	1909	73.7	0
23	1909	73.8	0
23	1909	73.9	0
23	1909	74	0
23	1909	74.1	0
23	1909	74.2	0
23	1909	74.3	0
23	1909	74.4	0
23	1909	74.5	0
23	1909	74.6	0
23	1909	74.7	0
23	1909	74.8	0
23	1909	74.9	0
23	1909	75	0
23	1909	75.1	0
23	1909	75.2	0
23	1909	75.3	0
23	1909	75.4	0
23	1909	75.5	0
23	1909	75.6	0
23	1909	75.7	0
23	1909	75.8	0
23	1909	75.9	0
23	1909	76	0
23	1909	76.1	0
23	1909	76.2	0
23	1909	76.3	0
23	1909	76.4	0
23	1909	76.5	0
23	1909	76.6	0
23	1909	76.7	0
23	1909	76.8	0
23	1909	76.9	0
23	1909	77	0
23	1909	77.1	0
23	1909	77.2	0
23	1909	77.3	0
23	1909	77.4	0
23	1909	77.5	0
23	1909	77.6	0
23	1909	77.7	0
23	1909	77.8	0
23	1909	77.9	0
23	1909	78	0
23	1909	78.1	0
23	1909	78.2	0
23	1909	78.3	0
23	1909	78.4	0
23	1909	78.5	0
23	1909	78.6	0
23	1909	78.7	0
23	1909	78.8	0
23	1909	78.9	0
23	1909	79	0
23	1909	79.1	0
23	1909	79.2	0
23	1909	79.3	0
23	1909	79.4	0
23	1909	79.5	0
23	1909	79.6	0
23	1909	79.7	0
23	1909	79.8	0
23	1909	79.9	0
23	1909	80	0
23	1909	80.1	0
23	1909	80.2	0
23	1909	80.3	0
23	1909	80.4	0
23	1909	80.5	0
23	1909	80.6	0
23	1909	80.7	0
23	1909	80.8	0
23	1909	80.9	0
23	1909	81	0
23	1909	81.1	0
23	1909	81.2	0
23	1909	81.3	0
23	1909	81.4	0
23	1909	81.5	0
23	1909	81.6	0
23	1909	81.7	0
23	1909	81.8	0
23	1909	81.9	0
23	1909	82	0
23	1909	82.1	0
23	1909	82.2	0
23	1909	82.3	0
23	1909	82.4	0
23	1909	82.5	0
23	1909	82.6	0
23	1909	82.7	0
23	1909	82.8	0
23	1909	82.9	0
23	1909	83	0
23	1909	83.1	0
23	1909	83.2	0
23	1909	83.3	0
23	1909	83.4	0
23	1909	83.5	0
23	1909	83.6	0
23	1909	83.7	0
23	1909	83.8	0
23	1909	83.9	0
23	1909	84	0
23	1909	84.1	0
23	1909	84.2	0
23	1909	84.3	0
23	1909	84.4	0
23	1909	84.5	0
23	1909	84.6	0
23	1909	84.7	0
23	1909	84.8	0
23	1909	84.9	0
23	1909	85	0
23	1909	85.1	0
23	1909	85.2	0
23	1909	85.3	0
23	1909	85.4	0
23	1909	85.5	0
23	1909	85.6	0
23	1909	85.7	0
23	1909	85.8	0
23	1909	85.9	0
23	1909	86	0
23	1909	86.1	0
23	1909	86.2	0
23	1909	86.3	0
23	1909	86.4	0
23	1909	86.5	0
23	1909	86.6	0
23	1909	86.7	0
23	1909	86.8	0
23	1909	86.9	0
23	1909	87	0
23	1909	87.1	0
23	1909	87.2	0
23	1909	87.3	0
23	1909	87.4	0
23	1909	87.5	0
23	1909	87.6	0
23	1909	87.7	0
23	1909	87.8	0
23	1909	87.9	0
23	1909	88	0
23	1909	88.1	0
23	1909	88.2	0
23	1909	88.3	0
23	1909	88.4	0
23	1909	88.5	0
23	1909	88.6	0
23	1909	88.7	0
23	1909	88.8	0
23	1909	88.9	0
23	1909	89	0
23	1909	89.1	0
23	1909	89.2	0
23	1909	89.3	0
23	1909	89.4	0
23	1909	89.5	0
23	1909	89.6	0
23	1909	89.7	0
23	1909	89.8	0
23	1909	89.9	0
23	1909	90	0
23	1909	90.1	0
23	1909	90.2	0
23	1909	90.3	0
23	1909	90.4	0
23	1909	90.5	0
23	1909	90.6	0
23	1909	90.7	0
23	1909	90.8	0
23	1909	90.9	0
23	1909	91	0
23	1909	91.1	0
23	1909	91.2	0
23	1909	91.3	0
23	1909	91.4	0
23	1909	91.5	0
23	1909	91.6	0
23	1909	91.7	0
23	1909	91.8	0
23	1909	91.9	0
23	1909	92	0
23	1909	92.1	0
23	1909	92.2	0
23	1909	92.3	0
23	1909	92.4	0
23	1909	92.5	0
23	1909	92.6	0
23	1909	92.7	0
23	1909	92.8	0
23	1909	92.9	0
23	1909	93	0
23	1909	93.1	0
23	1909	93.2	0
23	1909	93.3	0
23	1909	93.4	0
23	1909	93.5	0
23	1909	93.6	0
23	1909	93.7	0
23	1909	93.8	0
23	1909	93.9	0
23	1909	94	0
23	1909	94.1	0
23	1909	94.2	0
23	1909	94.3	0
23	1909	94.4	0
23	1909	94.5	0
23	1909	94.6	0
23	1909	94.7	0
23	1909	94.8	0
23	1909	94.9	0
23	1909	95	0
23	1909	95.1	0
23	1909	95.2	0
23	1909	95.3	0
23	1909	95.4	0
23	1909	95.5	0
23	1909	95.6	0
23	1909	95.7	0
23	1909	95.8	0
23	1909	95.9	0
23	1909	96	0
23	1909	96.1	0
23	1909	96.2	0
23	1909	96.3	0
23	1909	96.4	0
23	1909	96.5	0
23	1909	96.6	0
23	1909	96.7	0
23	1909	96.8	0
23	1909	96.9	0
23	1909	97	0
23	1909	97.1	0
23	1909	97.2	0
23	1909	97.3	0
23	1909	97.4	0
23	1909	97.5	0
23	1909	97.6	0
23	1909	97.7	0
23	1909	97.8	0
23	1909	97.9	0
23	1909	98	0
23	1909	98.1	0
23	1909	98.2	0
23	1909	98.3	0
23	1909	98.4	0
23	1909	98.5	0
23	1909	98.6	0
23	1909	98.7	0
23	1909	98.8	0
23	1909	98.9	0
23	1909	99	0
23	1909	99.1	0
23	1909	99.2	0
23	1909	99.3	0
23	1909	99.4	0
23	1909	99.5	0
23	1909	99.6	0
23	1909	99.7	0
23	1909	99.8	0
23	1909	99.9	0
23	1909	100	0
23	1909	100.1	0
23	1909	100.2	0
23	1909	100.3	0
23	1909	100.4	0
23	1909	100.5	0
23	1909	100.6	0
23	1909	100.7	0
23	1909	100.8	0
23	1909	100.9	0
23	1909	101	0
23	1909	101.1	0
23	1909	101.2	0
23	1909	101.3	0
23	1909	101.4	0
23	1909	101.5	0
23	1909	101.6	0
23	1909	101.7	0
23	1909	101.8	0
23	1909	101.9	0
23	1909	102	0
23	1909	102.1	0
23	1909	102.2	0
23	1909	102.3	0
23	1909	102.4	0
23	1909	102.5	0
23	1909	102.6	0
23	1909	102.7	0
23	1909	102.8	0
23	1909	102.9	0
23	1909	103	0
23	1909	103.1	0
23	1909	103.2	0
23	1909	103.3	0
23	1909	103.4	0
23	1909	103.5	0
23	1909	103.6	0
23	1909	103.7	0
23	1909	103.8	0
23	1909	103.9	0
23	1909	104	0
23	1909	104.1	0
23	1909	104.2	0
23	1909	104.3	0
23	1909	104.4	0
23	1909	104.5	0
23	1909	104.6	0
23	1909	104.7	0
23	1909	104.8	0
23	1909	104.9	0
23	1909	105	0
23	1909	105.1	0
23	1909	105.2	0
23	1909	105.3	0
23	1909	105.4	0
23	1909	105.5	0
23	1909	105.6	0
23	1909	105.7	0
23	1909	105.8	0
23	1909	105.9	0
23	1909	106	0
23	1909	106.1	0
23	1909	106.2	0
23	1909	106.3	0
23	1909	106.4	0
23	1909	106.5	0
23	1909	106.6	0
23	1909	106.7	0
23	1909	106.8	0
23	1909	106.9	0
23	1909	107	0
23	1909	107.1	0
23	1909	107.2	0
23	1909	107.3	0
23	1909	107.4	0
23	1909	107.5	0
23	1909	107.6	0
23	1909	107.7	0
23	1909	107.8	0
23	1909	107.9	0
23	1909	108	0
23	1909	108.1	0
23	1909	108.2	0
23	1909	108.3	0
23	1909	108.4	0
23	1909	108.5	0
23	1909	108.6	0
23	1909	108.7	0
23	1909	108.8	0
23	1909	108.9	0
23	1909	109	0
23	1909	109.1	0
23	1909	109.2	0
23	1909	109.3	0
23	1909	109.4	0
23	1909	109.5	0
23	1909	109.6	0
23	1909	109.7	0
23	1909	109.8	0
23	1909	109.9	0
23	1909	110	0
23	1909	110.1	0
23	1909	110.2	0
23	1909	110.3	0
23	1909	110.4	0
23	1909	110.5	0
23	1909	110.6	0
23	1909	110.7	0
23	1909	110.8	0
23	1909	110.9	0
23	1909	111	0
23	1909	111.1	0
23	1909	111.2	0
23	1909	111.3	0
23	1909	111.4	0
23	1909	111.5	0
23	1909	111.6	0
23	1909	111.7	0
23	1909	111.8	0
23	1909	111.9	0
23	1909	112	0
23	1909	112.1	0
23	1909	112.2	0
23	1909	112.3	0
23	1909	112.4	0
23	1909	112.5	0
23	1909	112.6	0
23	1909	112.7	0
23	1909	112.8	0
23	1909	112.9	0
23	1909	113	0
23	1909	113.1	0
23	1909	113.2	0
23	1909	113.3	0
23	1909	113.4	0
23	1909	113.5	0
23	1909	113.6	0
23	1909	113.7	0
23	1909	113.8	0
23	1909	113.9	0
23	1909	114	0
23	1909	114.1	0
23	1909	114.2	0
23	1909	114.3	0
23	1909	114.4	0
23	1909	114.5	0
23	1909	114.6	0
23	1909	114.7	0
23	1909	114.8	0
23	1909	114.9	0
23	1909	115	0
23	1909	115.1	0
23	1909	115.2	0
23	1909	115.3	0
23	1909	115.4	0
23	1909	115.5	0
23	1909	115.6	0
23	1909	115.7	0
23	1909	115.8	0
23	1909	115.9	0
23	1909	116	0
23	1909	116.1	0
23	1909	116.2	0
23	1909	116.3	0
23	1909	116.4	0
23	1909	116.5	0
23	1909	116.6	0
23	1909	116.7	0
23	1909	116.8	0
23	1909	116.9	0
23	1909	117	0
23	1909	117.1	0
23	1909	117.2	0
23	1909	117.3	0
23	1909	117.4	0
23	1909	117.5	0
23	1909	117.6	0
23	1909	117.7	0
23	1909	117.8	0
23	1909	117.9	0
23	1909	118	0
23	1909	118.1	0
23	1909	118.2	0
23	1909	118.3	0
23	1909	118.4	0
23	1909	118.5	0
23	1909	118.6	0
23	1909	118.7	0
23	1909	118.8	0
23	1909	118.9	0
23	1909	119	0
23	1909	119.1	0
23	1909	119.2	0
23	1909	119.3	0
23	1909	119.4	0
23	1909	119.5	0
23	1909	119.6	0
23	1909	119.7	0
23	1909	119.8	0
23	1909	119.9	0
23	1909	120	0
23	1909	120.1	0
23	1909	120.2	0
23	1909	120.3	0
23	1909	120.4	0
23	1909	120.5	0
23	1909	120.6	0
23	1909	120.7	0
23	1909	120.8	0
23	1909	120.9	0
23	1909	121	0
23	1909	121.1	0
23	1909	121.2	0
23	1909	121.3	0
23	1909	121.4	0
23	1909	121.5	0
23	1909	121.6	0
23	1909	121.7	0
23	1909	121.8	0
23	1909	121.9	0
23	1909	122	0
23	1909	122.1	0
23	1909	122.2	0
23	1909	122.3	0
23	1909	122.4	0
23	1909	122.5	0
23	1909	122.6	0
23	1909	122.7	0
23	1909	122.8	0
23	1909	122.9	0
23	1909	123	0
23	1909	123.1	0
23	1909	123.2	0
23	1909	123.3	0
23	1909	123.4	0
23	1909	123.5	0
23	1909	123.6	0
23	1909	123.7	0
23	1909	123.8	0
23	1909	123.9	0
23	1909	124	0
23	1909	124.1	0
23	1909	124.2	0
23	1909	124.3	0
23	1909	124.4	0
23	1909	124.5	0
23	1909	124.6	0
23	1909	124.7	0
23	1909	124.8	0
23	1909	124.9	0
23	1909	125	0
23	1909	125.1	0
23	1909	125.2	0
23	1909	125.3	0
23	1909	125.4	0
23	1909	125.5	0
23	1909	125.6	0
23	1909	125.7	0
23	1909	125.8	0
23	1909	125.9	0
23	1909	126	0
23	1909	126.1	0
23	1909	126.2	0
23	1909	126.3	0
23	1909	126.4	0
23	1909	126.5	0
23	1909	126.6	0
23	1909	126.7	0
23	1909	126.8	0
23	1909	126.9	0
23	1909	127	0
23	1909	127.1	0
23	1909	127.2	0
23	1909	127.3	0
23	1909	127.4	0
23	1909	127.5	0
23	1909	127.6	0
23	1909	127.7	0
23	1909	127.8	0
23	1909	127.9	0
23	1909	128	0
23	1909	128.1	0
23	1909	128.2	0
23	1909	128.3	0
23	1909	128.4	0
23	1909	128.5	0
23	1909	128.6	0
23	1909	128.7	0
23	1909	128.8	0
23	1909	128.9	0
23	1909	129	0
23	1909	129.1	0
23	1909	129.2	0
23	1909	129.3	0
23	1909	129.4	0
23	1909	129.5	0
23	1909	129.6	0
23	1909	129.7	0
23	1909	129.8	0
23	1909	129.9	0
23	1909	130	0
23	1909	130.1	0
23	1909	130.2	0
23	1909	130.3	0
23	1909	130.4	0
23	1909	130.5	0
23	1909	130.6	0
23	1909	130.7	0
23	1909	130.8	0
23	1909	130.9	0
23	1909	131	0
23	1909	131.1	0
23	1909	131.2	0
23	1909	131.3	0
23	1909	131.4	0
23	1909	131.5	0
23	1909	131.6	0
23	1909	131.7	0
23	1909	131.8	0
23	1909	131.9	0
23	1909	132	0
23	1909	132.1	0
23	1909	132.2	0
23	1909	132.3	0
23	1909	132.4	0
23	1909	132.5	0
23	1909	132.6	0
23	1909	132.7	0
23	1909	132.8	0
23	1909	132.9	0
23	1909	133	0
23	1909	133.1	0
23	1909	133.2	0
23	1909	133.3	0
23	1909	133.4	0
23	1909	133.5	0
23	1909	133.6	0
23	1909	133.7	0
23	1909	133.8	0
23	1909	133.9	0
23	1909	134	0
23	1909	134.1	0
23	1909	134.2	0
23	1909	134.3	0
23	1909	134.4	0
23	1909	134.5	0
23	1909	134.6	0
23	1909	134.7	0
23	1909	134.8	0
23	1909	134.9	0
23	1909	135	0
23	1909	135.1	0
23	1909	135.2	0
23	1909	135.3	0
23	1909	135.4	0
23	1909	135.5	0
23	1909	135.6	0
23	1909	135.7	0
23	1909	135.8	0
23	1909	135.9	0
23	1909	136	0
23	1909	136.1	0
23	1909	136.2	0
23	1909	136.3	0
23	1909	136.4	0
23	1909	136.5	0
23	1909	136.6	0
23	1909	136.7	0
23	1909	136.8	0
23	1909	136.9	0
23	1909	137	0
23	1909	137.1	0
23	1909	137.2	0
23	1909	137.3	0
23	1909	137.4	0
23	1909	137.5	0
23	1909	137.6	0
23	1909	137.7	0
23	1909	137.8	0
23	1909	137.9	0
23	1909	138	0
23	1909	138.1	0
23	1909	138.2	0
23	1909	138.3	0
23	1909	138.4	0
23	1909	138.5	0
23	1909	138.6	0
23	1909	138.7	0
23	1909	138.8	0
23	1909	138.9	0
23	1909	139	0
23	1909	139.1	0
23	1909	139.2	0
23	1909	139.3	0
23	1909	139.4	0
23	1909	139.5	0
23	1909	139.6	0
23	1909	139.7	0
23	1909	139.8	0
23	1909	139.9	0
23	1909	140	0
23	1909	140.1	0
23	1909	140.2	0
23	1909	140.3	0
23	1909	140.4	0
23	1909	140.5	0
23	1909	140.6	0
23	1909	140.7	0
23	1909	140.8	0
23	1909	140.9	0
23	1909	141	0
23	1909	141.1	0
23	1909	141.2	0
23	1909	141.3	0
23	1909	141.4	0
23	1909	141.5	0
23	1909	141.6	0
23	1909	141.7	0
23	1909	141.8	0
23	1909	141.9	0
23	1909	142	0
23	1909	142.1	0
23	1909	142.2	0
23	1909	142.3	0
23	1909	142.4	0
23	1909	142.5	0
23	1909	142.6	0
23	1909	142.7	0
23	1909	142.8	0
23	1909	142.9	0
23	1909	143	0
23	1909	143.1	0
23	1909	143.2	0
23	1909	143.3	0
23	1909	143.4	0
23	1909	143.5	0
23	1909	143.6	0
23	1909	143.7	0
23	1909	143.8	0
23	1909	143.9	0
23	1909	144	0
23	1909	144.1	0
23	1909	144.2	0
23	1909	144.3	0
23	1909	144.4	0
23	1909	144.5	0
23	1909	144.6	0
23	1909	144.7	0
23	1909	144.8	0
23	1909	144.9	0
23	1909	145	0
23	1909	145.1	0
23	1909	145.2	0
23	1909	145.3	0
23	1909	145.4	0
23	1909	145.5	0
23	1909	145.6	0
23	1909	145.7	0
23	1909	145.8	0
23	1909	145.9	0
23	1909	146	0
23	1909	146.1	0
23	1909	146.2	0
23	1909	146.3	0
23	1909	146.4	0
23	1909	146.5	0
23	1909	146.6	0
23	1909	146.7	0
23	1909	146.8	0
23	1909	146.9	0
23	1909	147	0
23	1909	147.1	0
23	1909	147.2	0
23	1909	147.3	0
23	1909	147.4	0
23	1909	147.5	0
23	1909	147.6	0
23	1909	147.7	0
23	1909	147.8	0
23	1909	147.9	0
23	1909	148	0
23	1909	148.1	0
23	1909	148.2	0
23	1909	148.3	0
23	1909	148.4	0
23	1909	148.5	0
23	1909	148.6	0
23	1909	148.7	0
23	1909	148.8	0
23	1909	148.9	0
23	1909	149	0
23	1909	149.1	0
23	1909	149.2	0
23	1909	149.3	0
23	1909	149.4	0
23	1909	149.5	0
23	1909	149.6	0
23	1909	149.7	0
23	1909	149.8	0
23	1909	149.9	0
23	1909	150	0
23	1909	150.1	0
23	1909	150.2	0
23	1909	150.3	0
23	1909	150.4	0
23	1909	150.5	0
23	1909	150.6	0
23	1909	150.7	0
23	1909	150.8	0
23	1909	150.9	0
23	1909	151	0
23	1909	151.1	0
23	1909	151.2	0
23	1909	151.3	0
23	1909	151.4	0
23	1909	151.5	0
23	1909	151.6	0
23	1909	151.7	0
23	1909	151.8	0
23	1909	151.9	0
23	1909	152	0
23	1909	152.1	0
23	1909	152.2	0
23	1909	152.3	0
23	1909	152.4	0
23	1909	152.5	0
23	1909	152.6	0
23	1909	152.7	0
23	1909	152.8	0
23	1909	152.9	0
23	1909	153	0
23	1909	153.1	0
23	1909	153.2	0
23	1909	153.3	0
23	1909	153.4	0
23	1909	153.5	0
23	1909	153.6	0
23	1909	153.7	0
23	1909	153.8	0
23	1909	153.9	0
23	1909	154	0
23	1909	154.1	0
23	1909	154.2	0
23	1909	154.3	0
23	1909	154.4	0
23	1909	154.5	0
23	1909	154.6	0
23	1909	154.7	0
23	1909	154.8	0
23	1909	154.9	0
23	1909	155	0
23	1909	155.1	0
23	1909	155.2	0
23	1909	155.3	0
23	1909	155.4	0
23	1909	155.5	0
23	1909	155.6	0
23	1909	155.7	0
23	1909	155.8	0
23	1909	155.9	0
23	1909	156	0
23	1909	156.1	0
23	1909	156.2	0
23	1909	156.3	0
23	1909	156.4	0
23	1909	156.5	0
23	1909	156.6	0
23	1909	156.7	0
23	1909	156.8	0
23	1909	156.9	0
23	1909	157	0
23	1909	157.1	0
23	1909	157.2	0
23	1909	157.3	0
23	1909	157.4	0
23	1909	157.5	0
23	1909	157.6	0
23	1909	157.7	0
23	1909	157.8	0
23	1909	157.9	0
23	1909	158	0
23	1909	158.1	0
23	1909	158.2	0
23	1909	158.3	0
23	1909	158.4	0
23	1909	158.5	0
23	1909	158.6	0
23	1909	158.7	0
23	1909	158.8	0
23	1909	158.9	0
23	1909	159	0
23	1909	159.1	0
23	1909	159.2	0
23	1909	159.3	0
23	1909	159.4	0
23	1909	159.5	0
23	1909	159.6	0
23	1909	159.7	0
23	1909	159.8	0
23	1909	159.9	0
23	1909	160	0
23	1909	160.1	0
23	1909	160.2	0
23	1909	160.3	0
23	1909	160.4	0
23	1909	160.5	0
23	1909	160.6	0
23	1909	160.7	0
23	1909	160.8	0
23	1909	160.9	0
23	1909	161	0
23	1909	161.1	0
23	1909	161.2	0
23	1909	161.3	0
23	1909	161.4	0
23	1909	161.5	0
23	1909	161.6	0
23	1909	161.7	0
23	1909	161.8	0
23	1909	161.9	0
23	1909	162	0
23	1909	162.1	0
23	1909	162.2	0
23	1909	162.3	0
23	1909	162.4	0
23	1909	162.5	0
23	1909	162.6	0
23	1909	162.7	0
23	1909	162.8	0
23	1909	162.9	0
23	1909	163	0
23	1909	163.1	0
23	1909	163.2	0
23	1909	163.3	0
23	1909	163.4	0
23	1909	163.5	0
23	1909	163.6	0
23	1909	163.7	0
23	1909	163.8	0
23	1909	163.9	0
23	1909	164	0
23	1909	164.1	0
23	1909	164.2	0
23	1909	164.3	0
23	1909	164.4	0
23	1909	164.5	0
23	1909	164.6	0
23	1909	164.7	0
23	1909	164.8	0
23	1909	164.9	0
23	1909	165	0
23	1909	165.1	0
23	1909	165.2	0
23	1909	165.3	0
23	1909	165.4	0
23	1909	165.5	0
23	1909	165.6	0
23	1909	165.7	0
23	1909	165.8	0
23	1909	165.9	0
23	1909	166	0
23	1909	166.1	0
23	1909	166.2	0
23	1909	166.3	0
23	1909	166.4	0
23	1909	166.5	0
23	1909	166.6	0
23	1909	166.7	0
23	1909	166.8	0
23	1909	166.9	0
23	1909	167	0
23	1909	167.1	0
23	1909	167.2	0
23	1909	167.3	0
23	1909	167.4	0
23	1909	167.5	0
23	1909	167.6	0
23	1909	167.7	0
23	1909	167.8	0
23	1909	167.9	0
23	1909	168	0
23	1909	168.1	0
23	1909	168.2	0
23	1909	168.3	0
23	1909	168.4	0
23	1909	168.5	0
23	1909	168.6	0
23	1909	168.7	0
23	1909	168.8	0
23	1909	168.9	0
23	1909	169	0
23	1909	169.1	0
23	1909	169.2	0
23	1909	169.3	0
23	1909	169.4	0
23	1909	169.5	0
23	1909	169.6	0
23	1909	169.7	0
23	1909	169.8	0
23	1909	169.9	0
23	1909	170	0
23	1909	170.1	0
23	1909	170.2	0
23	1909	170.3	0
23	1909	170.4	0
23	1909	170.5	0
23	1909	170.6	0
23	1909	170.7	0
23	1909	170.8	0
23	1909	170.9	0
23	1909	171	0
23	1909	171.1	0
23	1909	171.2	0
23	1909	171.3	0
23	1909	171.4	0
23	1909	171.5	0
23	1909	171.6	0
23	1909	171.7	0
23	1909	171.8	0
23	1909	171.9	0
23	1909	172	0
23	1909	172.1	0
23	1909	172.2	0
23	1909	172.3	0
23	1909	172.4	0
23	1909	172.5	0
23	1909	172.6	0
23	1909	172.7	0
23	1909	172.8	0
23	1909	172.9	0
23	1909	173	0
23	1909	173.1	0
23	1909	173.2	0
23	1909	173.3	0
23	1909	173.4	0
23	1909	173.5	0
23	1909	173.6	0
23	1909	173.7	0
23	1909	173.8	0
23	1909	173.9	0
23	1909	174	0
23	1909	174.1	0
23	1909	174.2	0
23	1909	174.3	0
23	1909	174.4	0
23	1909	174.5	0
23	1909	174.6	0
23	1909	174.7	0
23	1909	174.8	0
23	1909	174.9	0
23	1909	175	0
23	1909	175.1	0
23	1909	175.2	0
23	1909	175.3	0
23	1909	175.4	0
23	1909	175.5	0
23	1909	175.6	0
23	1909	175.7	0
23	1909	175.8	0
23	1909	175.9	0
23	1909	176	0
23	1909	176.1	0
23	1909	176.2	0
23	1909	176.3	0
23	1909	176.4	0
23	1909	176.5	0
23	1909	176.6	0
23	1909	176.7	0
23	1909	176.8	0
23	1909	176.9	0
23	1909	177	0
23	1909	177.1	0
23	1909	177.2	0
23	1909	177.3	0
23	1909	177.4	0
23	1909	177.5	0
23	1909	177.6	0
23	1909	177.7	0
23	1909	177.8	0
23	1909	177.9	0
23	1909	178	0
23	1909	178.1	0
23	1909	178.2	0
23	1909	178.3	0
23	1909	178.4	0
23	1909	178.5	0
23	1909	178.6	0
23	1909	178.7	0
23	1909	178.8	0
23	1909	178.9	0
23	1909	179	0
23	1909	179.1	0
23	1909	179.2	0
23	1909	179.3	0
23	1909	179.4	0
23	1909	179.5	0
23	1909	179.6	0
23	1909	179.7	0
23	1909	179.8	0
23	1909	179.9	0
23	1909	180	0
23	1909	180.1	0
23	1909	180.2	0
23	1909	180.3	0
23	1909	180.4	0
23	1909	180.5	0
23	1909	180.6	0
23	1909	180.7	0
23	1909	180.8	0
23	1909	180.9	0
23	1909	181	0
23	1909	181.1	0
23	1909	181.2	0
23	1909	181.3	0
23	1909	181.4	0
23	1909	181.5	0
23	1909	181.6	0
23	1909	181.7	0
23	1909	181.8	0
23	1909	181.9	0
23	1909	182	0
23	1909	182.1	0
23	1909	182.2	0
23	1909	182.3	0
23	1909	182.4	0
23	1909	182.5	0
23	1909	182.6	0
23	1909	182.7	0
23	1909	182.8	0
23	1909	182.9	0
23	1909	183	0
23	1909	183.1	0
23	1909	183.2	0
23	1909	183.3	0
23	1909	183.4	0
23	1909	183.5	0
23	1909	183.6	0
23	1909	183.7	0
23	1909	183.8	0
23	1909	183.9	0
23	1909	184	0
23	1909	184.1	0
23	1909	184.2	0
23	1909	184.3	0
23	1909	184.4	0
23	1909	184.5	0
23	1909	184.6	0
23	1909	184.7	0
23	1909	184.8	0
23	1909	184.9	0
23	1909	185	0
23	1909	185.1	0
23	1909	185.2	0
23	1909	185.3	0
23	1909	185.4	0
23	1909	185.5	0
23	1909	185.6	0
23	1909	185.7	0
23	1909	185.75877811228	0
24	1909	0.1	0
24	1909	0.2	0
24	1909	0.3	0
24	1909	0.4	0
24	1909	0.5	0
24	1909	0.6	0
24	1909	0.7	0
24	1909	0.8	0
24	1909	0.9	0
24	1909	1	0
24	1909	1.1	0
24	1909	1.2	0
24	1909	1.3	0
24	1909	1.4	0
24	1909	1.5	0
24	1909	1.6	0
24	1909	1.7	0
24	1909	1.8	0
24	1909	1.9	0
24	1909	2	0
24	1909	2.1	0
24	1909	2.2	0
24	1909	2.3	0
24	1909	2.4	0
24	1909	2.5	0
24	1909	2.6	0
24	1909	2.7	0
24	1909	2.8	0
24	1909	2.9	0
24	1909	3	0
24	1909	3.1	0
24	1909	3.2	0
24	1909	3.3	0
24	1909	3.4	0
24	1909	3.5	0
24	1909	3.6	0
24	1909	3.7	0
24	1909	3.8	0
24	1909	3.9	0
24	1909	4	0
24	1909	4.1	0
24	1909	4.2	0
24	1909	4.3	0
24	1909	4.4	0
24	1909	4.5	0
24	1909	4.6	0
24	1909	4.7	0
24	1909	4.8	0
24	1909	4.9	0
24	1909	5	0
24	1909	5.1	0
24	1909	5.2	0
24	1909	5.3	0
24	1909	5.4	0
24	1909	5.5	0
24	1909	5.6	0
24	1909	5.7	0
24	1909	5.8	0
24	1909	5.9	0
24	1909	6	0
24	1909	6.1	0
24	1909	6.2	0
24	1909	6.3	0
24	1909	6.4	0
24	1909	6.5	0
24	1909	6.6	0
24	1909	6.7	0
24	1909	6.8	0
24	1909	6.9	0
24	1909	7	0
24	1909	7.1	0
24	1909	7.2	0
24	1909	7.3	0
24	1909	7.4	0
24	1909	7.5	0
24	1909	7.6	0
24	1909	7.7	0
24	1909	7.8	0
24	1909	7.9	0
24	1909	8	0
24	1909	8.1	0
24	1909	8.2	0
24	1909	8.3	0
24	1909	8.4	0
24	1909	8.5	0
24	1909	8.6	0
24	1909	8.7	0
24	1909	8.8	0
24	1909	8.9	0
24	1909	9	0
24	1909	9.1	0
24	1909	9.2	0
24	1909	9.3	0
24	1909	9.4	0
24	1909	9.5	0
24	1909	9.6	0
24	1909	9.7	0
24	1909	9.8	0
24	1909	9.9	0
24	1909	10	0
24	1909	10.1	0
24	1909	10.2	0
24	1909	10.3	0
24	1909	10.4	0
24	1909	10.5	0
24	1909	10.6	0
24	1909	10.7	0
24	1909	10.8	0
24	1909	10.9	0
24	1909	11	0
24	1909	11.1	0
24	1909	11.2	0
24	1909	11.3	0
24	1909	11.4	0
24	1909	11.5	0
24	1909	11.6	0
24	1909	11.7	0
24	1909	11.8	0
24	1909	11.9	0
24	1909	12	0
24	1909	12.1	0
24	1909	12.2	0
24	1909	12.3	0
24	1909	12.4	0
24	1909	12.5	0
24	1909	12.6	0
24	1909	12.7	0
24	1909	12.8	0
24	1909	12.9	0
24	1909	13	0
24	1909	13.1	0
24	1909	13.2	0
24	1909	13.3	0
24	1909	13.4	0
24	1909	13.5	0
24	1909	13.6	0
24	1909	13.7	0
24	1909	13.8	0
24	1909	13.9	0
24	1909	14	0
24	1909	14.1	0
24	1909	14.2	0
24	1909	14.3	0
24	1909	14.4	0
24	1909	14.5	0
24	1909	14.6	0
24	1909	14.7	0
24	1909	14.8	0
24	1909	14.9	0
24	1909	15	0
24	1909	15.1	0
24	1909	15.2	0
24	1909	15.3	0
24	1909	15.4	0
24	1909	15.5	0
24	1909	15.6	0
24	1909	15.7	0
24	1909	15.8	0
24	1909	15.9	0
24	1909	16	0
24	1909	16.1	0
24	1909	16.2	0
24	1909	16.3	0
24	1909	16.4	0
24	1909	16.5	0
24	1909	16.6	0
24	1909	16.7	0
24	1909	16.8	0
24	1909	16.9	0
24	1909	17	0
24	1909	17.1	0
24	1909	17.2	0
24	1909	17.3	0
24	1909	17.4	0
24	1909	17.5	0
24	1909	17.6	0
24	1909	17.7	0
24	1909	17.8	0
24	1909	17.9	0
24	1909	18	0
24	1909	18.1	0
24	1909	18.2	0
24	1909	18.3	0
24	1909	18.4	0
24	1909	18.5	0
24	1909	18.6	0
24	1909	18.7	0
24	1909	18.8	0
24	1909	18.9	0
24	1909	19	0
24	1909	19.1	0
24	1909	19.2	0
24	1909	19.3	0
24	1909	19.4	0
24	1909	19.5	0
24	1909	19.6	0
24	1909	19.7	0
24	1909	19.8	0
24	1909	19.9	0
24	1909	20	0
24	1909	20.1	0
24	1909	20.2	0
24	1909	20.3	0
24	1909	20.4	0
24	1909	20.5	0
24	1909	20.6	0
24	1909	20.7	0
24	1909	20.8	0
24	1909	20.9	0
24	1909	21	0
24	1909	21.1	0
24	1909	21.2	0
24	1909	21.3	0
24	1909	21.4	0
24	1909	21.5	0
24	1909	21.6	0
24	1909	21.7	0
24	1909	21.8	0
24	1909	21.9	0
24	1909	22	0
24	1909	22.1	0
24	1909	22.2	0
24	1909	22.3	0
24	1909	22.4	0
24	1909	22.5	0
24	1909	22.6	0
24	1909	22.7	0
24	1909	22.8	0
24	1909	22.9	0
24	1909	23	0
24	1909	23.1	0
24	1909	23.2	0
24	1909	23.3	0
24	1909	23.4	0
24	1909	23.5	0
24	1909	23.6	0
24	1909	23.7	0
24	1909	23.8	0
24	1909	23.9	0
24	1909	24	0
24	1909	24.1	0
24	1909	24.2	0
24	1909	24.3	0
24	1909	24.4	0
24	1909	24.5	0
24	1909	24.6	0
24	1909	24.7	0
24	1909	24.8	0
24	1909	24.9	0
24	1909	25	0
24	1909	25.1	0
24	1909	25.2	0
24	1909	25.3	0
24	1909	25.4	0
24	1909	25.5	0
24	1909	25.6	0
24	1909	25.7	0
24	1909	25.8	0
24	1909	25.9	0
24	1909	26	0
24	1909	26.1	0
24	1909	26.2	0
24	1909	26.3	0
24	1909	26.4	0
24	1909	26.5	0
24	1909	26.6	0
24	1909	26.7	0
24	1909	26.8	0
24	1909	26.9	0
24	1909	27	0
24	1909	27.1	0
24	1909	27.2	0
24	1909	27.3	0
24	1909	27.4	0
24	1909	27.5	0
24	1909	27.6	0
24	1909	27.7	0
24	1909	27.8	0
24	1909	27.9	0
24	1909	28	0
24	1909	28.1	0
24	1909	28.2	0
24	1909	28.3	0
24	1909	28.4	0
24	1909	28.5	0
24	1909	28.6	0
24	1909	28.7	0
24	1909	28.8	0
24	1909	28.9	0
24	1909	29	0
24	1909	29.1	0
24	1909	29.2	0
24	1909	29.3	0
24	1909	29.4	0
24	1909	29.5	0
24	1909	29.6	0
24	1909	29.7	0
24	1909	29.8	0
24	1909	29.9	0
24	1909	30	0
24	1909	30.1	0
24	1909	30.2	0
24	1909	30.3	0
24	1909	30.4	0
24	1909	30.5	0
24	1909	30.6	0
24	1909	30.7	0
24	1909	30.8	0
24	1909	30.9	0
24	1909	31	0
24	1909	31.1	0
24	1909	31.2	0
24	1909	31.3	0
24	1909	31.4	0
24	1909	31.5	0
24	1909	31.6	0
24	1909	31.7	0
24	1909	31.8	0
24	1909	31.9	0
24	1909	32	0
24	1909	32.1	0
24	1909	32.2	0
24	1909	32.3	0
24	1909	32.4	0
24	1909	32.5	0
24	1909	32.6	0
24	1909	32.7	0
24	1909	32.8	0
24	1909	32.9	0
24	1909	33	0
24	1909	33.1	0
24	1909	33.2	0
24	1909	33.3	0
24	1909	33.4	0
24	1909	33.5	0
24	1909	33.6	0
24	1909	33.7	0
24	1909	33.8	0
24	1909	33.9	0
24	1909	34	0
24	1909	34.1	0
24	1909	34.2	0
24	1909	34.3	0
24	1909	34.4	0
24	1909	34.5	0
24	1909	34.6	0
24	1909	34.7	0
24	1909	34.8	0
24	1909	34.9	0
24	1909	35	0
24	1909	35.1	0
24	1909	35.2	0
24	1909	35.3	0
24	1909	35.4	0
24	1909	35.5	0
24	1909	35.6	0
24	1909	35.7	0
24	1909	35.8	0
24	1909	35.9	0
24	1909	36	0
24	1909	36.1	0
24	1909	36.2	0
24	1909	36.3	0
24	1909	36.4	0
24	1909	36.5	0
24	1909	36.6	0
24	1909	36.7	0
24	1909	36.8	0
24	1909	36.9	0
24	1909	37	0
24	1909	37.1	0
24	1909	37.2	0
24	1909	37.3	0
24	1909	37.4	0
24	1909	37.5	0
24	1909	37.6	0
24	1909	37.7	0
24	1909	37.8	0
24	1909	37.9	0
24	1909	38	0
24	1909	38.1	0
24	1909	38.2	0
24	1909	38.3	0
24	1909	38.4	0
24	1909	38.5	0
24	1909	38.6	0
24	1909	38.7	0
24	1909	38.8	0
24	1909	38.9	0
24	1909	39	0
24	1909	39.1	0
24	1909	39.2	0
24	1909	39.3	0
24	1909	39.4	0
24	1909	39.5	0
24	1909	39.6	0
24	1909	39.7	0
24	1909	39.8	0
24	1909	39.9	0
24	1909	40	0
24	1909	40.1	0
24	1909	40.2	0
24	1909	40.3	0
24	1909	40.4	0
24	1909	40.5	0
24	1909	40.6	0
24	1909	40.7	0
24	1909	40.8	0
24	1909	40.9	0
24	1909	41	0
24	1909	41.1	0
24	1909	41.2	0
24	1909	41.3	0
24	1909	41.4	0
24	1909	41.5	0
24	1909	41.6	0
24	1909	41.7	0
24	1909	41.8	0
24	1909	41.9	0
24	1909	42	0
24	1909	42.1	0
24	1909	42.2	0
24	1909	42.3	0
24	1909	42.4	0
24	1909	42.5	0
24	1909	42.6	0
24	1909	42.7	0
24	1909	42.8	0
24	1909	42.9	0
24	1909	43	0
24	1909	43.1	0
24	1909	43.2	0
24	1909	43.3	0
24	1909	43.4	0
24	1909	43.5	0
24	1909	43.6	0
24	1909	43.7	0
24	1909	43.8	0
24	1909	43.9	0
24	1909	44	0
24	1909	44.1	0
24	1909	44.2	0
24	1909	44.3	0
24	1909	44.4	0
24	1909	44.5	0
24	1909	44.6	0
24	1909	44.7	0
24	1909	44.8	0
24	1909	44.9	0
24	1909	45	0
24	1909	45.1	0
24	1909	45.2	0
24	1909	45.3	0
24	1909	45.4	0
24	1909	45.5	0
24	1909	45.6	0
24	1909	45.7	0
24	1909	45.8	0
24	1909	45.9	0
24	1909	46	0
24	1909	46.1	0
24	1909	46.2	0
24	1909	46.3	0
24	1909	46.4	0
24	1909	46.5	0
24	1909	46.6	0
24	1909	46.7	0
24	1909	46.8	0
24	1909	46.9	0
24	1909	47	0
24	1909	47.1	0
24	1909	47.2	0
24	1909	47.3	0
24	1909	47.4	0
24	1909	47.5	0
24	1909	47.6	0
24	1909	47.7	0
24	1909	47.8	0
24	1909	47.9	0
24	1909	48	0
24	1909	48.1	0
24	1909	48.2	0
24	1909	48.3	0
24	1909	48.4	0
24	1909	48.5	0
24	1909	48.6	0
24	1909	48.7	0
24	1909	48.8	0
24	1909	48.9	0
24	1909	49	0
24	1909	49.1	0
24	1909	49.2	0
24	1909	49.3	0
24	1909	49.4	0
24	1909	49.5	0
24	1909	49.6	0
24	1909	49.7	0
24	1909	49.8	0
24	1909	49.9	0
24	1909	50	0
24	1909	50.1	0
24	1909	50.2	0
24	1909	50.3	0
24	1909	50.4	0
24	1909	50.5	0
24	1909	50.6	0
24	1909	50.7	0
24	1909	50.8	0
24	1909	50.9	0
24	1909	51	0
24	1909	51.1	0
24	1909	51.2	0
24	1909	51.3	0
24	1909	51.4	0
24	1909	51.5	0
24	1909	51.6	0
24	1909	51.7	0
24	1909	51.8	0
24	1909	51.9	0
24	1909	52	0
24	1909	52.1	0
24	1909	52.2	0
24	1909	52.3	0
24	1909	52.4	0
24	1909	52.5	0
24	1909	52.6	0
24	1909	52.7	0
24	1909	52.8	0
24	1909	52.9	0
24	1909	53	0
24	1909	53.1	0
24	1909	53.2	0
24	1909	53.3	0
24	1909	53.4	0
24	1909	53.5	0
24	1909	53.6	0
24	1909	53.7	0
24	1909	53.8	0
24	1909	53.9	0
24	1909	54	0
24	1909	54.1	0
24	1909	54.2	0
24	1909	54.3	0
24	1909	54.4	0
24	1909	54.5	0
24	1909	54.6	0
24	1909	54.7	0
24	1909	54.8	0
24	1909	54.9	0
24	1909	55	0
24	1909	55.1	0
24	1909	55.2	0
24	1909	55.3	0
24	1909	55.4	0
24	1909	55.5	0
24	1909	55.6	0
24	1909	55.7	0
24	1909	55.8	0
24	1909	55.9	0
24	1909	56	0
24	1909	56.1	0
24	1909	56.2	0
24	1909	56.3	0
24	1909	56.4	0
24	1909	56.5	0
24	1909	56.6	0
24	1909	56.7	0
24	1909	56.8	0
24	1909	56.9	0
24	1909	57	0
24	1909	57.1	0
24	1909	57.2	0
24	1909	57.3	0
24	1909	57.4	0
24	1909	57.5	0
24	1909	57.6	0
24	1909	57.7	0
24	1909	57.8	0
24	1909	57.9	0
24	1909	58	0
24	1909	58.1	0
24	1909	58.2	0
24	1909	58.3	0
24	1909	58.4	0
24	1909	58.5	0
24	1909	58.6	0
24	1909	58.7	0
24	1909	58.8	0
24	1909	58.9	0
24	1909	59	0
24	1909	59.1	0
24	1909	59.2	0
24	1909	59.3	0
24	1909	59.4	0
24	1909	59.5	0
24	1909	59.6	0
24	1909	59.7	0
24	1909	59.8	0
24	1909	59.9	0
24	1909	60	0
24	1909	60.1	0
24	1909	60.2	0
24	1909	60.3	0
24	1909	60.4	0
24	1909	60.5	0
24	1909	60.6	0
24	1909	60.7	0
24	1909	60.8	0
24	1909	60.9	0
24	1909	61	0
24	1909	61.1	0
24	1909	61.2	0
24	1909	61.3	0
24	1909	61.4	0
24	1909	61.5	0
24	1909	61.6	0
24	1909	61.7	0
24	1909	61.8	0
24	1909	61.9	0
24	1909	62	0
24	1909	62.1	0
24	1909	62.2	0
24	1909	62.3	0
24	1909	62.4	0
24	1909	62.5	0
24	1909	62.6	0
24	1909	62.7	0
24	1909	62.8	0
24	1909	62.9	0
24	1909	63	0
24	1909	63.1	0
24	1909	63.2	0
24	1909	63.3	0
24	1909	63.4	0
24	1909	63.5	0
24	1909	63.6	0
24	1909	63.7	0
24	1909	63.8	0
24	1909	63.9	0
24	1909	64	0
24	1909	64.1	0
24	1909	64.2	0
24	1909	64.3	0
24	1909	64.4	0
24	1909	64.5	0
24	1909	64.6	0
24	1909	64.7	0
24	1909	64.8	0
24	1909	64.9	0
24	1909	65	0
24	1909	65.1	0
24	1909	65.2	0
24	1909	65.3	0
24	1909	65.4	0
24	1909	65.5	0
24	1909	65.6	0
24	1909	65.7	0
24	1909	65.8	0
24	1909	65.9	0
24	1909	66	0
24	1909	66.1	0
24	1909	66.2	0
24	1909	66.3	0
24	1909	66.4	0
24	1909	66.5	0
24	1909	66.6	0
24	1909	66.7	0
24	1909	66.8	0
24	1909	66.9	0
24	1909	67	0
24	1909	67.1	0
24	1909	67.2	0
24	1909	67.3	0
24	1909	67.4	0
24	1909	67.5	0
24	1909	67.6	0
24	1909	67.7	0
24	1909	67.8	0
24	1909	67.9	0
24	1909	68	0
24	1909	68.1	0
24	1909	68.2	0
24	1909	68.3	0
24	1909	68.4	0
24	1909	68.5	0
24	1909	68.6	0
24	1909	68.7	0
24	1909	68.8	0
24	1909	68.9	0
24	1909	69	0
24	1909	69.1	0
24	1909	69.2	0
24	1909	69.3	0
24	1909	69.4	0
24	1909	69.5	0
24	1909	69.6	0
24	1909	69.7	0
24	1909	69.8	0
24	1909	69.9	0
24	1909	70	0
24	1909	70.1	0
24	1909	70.2	0
24	1909	70.3	0
24	1909	70.4	0
24	1909	70.5	0
24	1909	70.6	0
24	1909	70.7	0
24	1909	70.8	0
24	1909	70.9	0
24	1909	71	0
24	1909	71.1	0
24	1909	71.2	0
24	1909	71.3	0
24	1909	71.4	0
24	1909	71.5	0
24	1909	71.6	0
24	1909	71.7	0
24	1909	71.8	0
24	1909	71.9	0
24	1909	72	0
24	1909	72.1	0
24	1909	72.2	0
24	1909	72.3	0
24	1909	72.4	0
24	1909	72.5	0
24	1909	72.6	0
24	1909	72.7	0
24	1909	72.8	0
24	1909	72.9	0
24	1909	73	0
24	1909	73.1	0
24	1909	73.2	0
24	1909	73.3	0
24	1909	73.4	0
24	1909	73.5	0
24	1909	73.6	0
24	1909	73.7	0
24	1909	73.8	0
24	1909	73.9	0
24	1909	74	0
24	1909	74.1	0
24	1909	74.2	0
24	1909	74.3	0
24	1909	74.4	0
24	1909	74.5	0
24	1909	74.6	0
24	1909	74.7	0
24	1909	74.8	0
24	1909	74.9	0
24	1909	75	0
24	1909	75.1	0
24	1909	75.2	0
24	1909	75.3	0
24	1909	75.4	0
24	1909	75.5	0
24	1909	75.6	0
24	1909	75.7	0
24	1909	75.8	0
24	1909	75.9	0
24	1909	76	0
24	1909	76.1	0
24	1909	76.2	0
24	1909	76.3	0
24	1909	76.4	0
24	1909	76.5	0
24	1909	76.6	0
24	1909	76.7	0
24	1909	76.8	0
24	1909	76.9	0
24	1909	77	0
24	1909	77.1	0
24	1909	77.2	0
24	1909	77.3	0
24	1909	77.4	0
24	1909	77.5	0
24	1909	77.6	0
24	1909	77.7	0
24	1909	77.8	0
24	1909	77.9	0
24	1909	78	0
24	1909	78.1	0
24	1909	78.2	0
24	1909	78.3	0
24	1909	78.4	0
24	1909	78.5	0
24	1909	78.6	0
24	1909	78.7	0
24	1909	78.8	0
24	1909	78.9	0
24	1909	79	0
24	1909	79.1	0
24	1909	79.2	0
24	1909	79.3	0
24	1909	79.4	0
24	1909	79.5	0
24	1909	79.6	0
24	1909	79.7	0
24	1909	79.8	0
24	1909	79.9	0
24	1909	80	0
24	1909	80.1	0
24	1909	80.2	0
24	1909	80.3	0
24	1909	80.4	0
24	1909	80.5	0
24	1909	80.6	0
24	1909	80.7	0
24	1909	80.8	0
24	1909	80.9	0
24	1909	81	0
24	1909	81.1	0
24	1909	81.2	0
24	1909	81.3	0
24	1909	81.4	0
24	1909	81.5	0
24	1909	81.6	0
24	1909	81.7	0
24	1909	81.8	0
24	1909	81.9	0
24	1909	82	0
24	1909	82.1	0
24	1909	82.2	0
24	1909	82.3	0
24	1909	82.4	0
24	1909	82.5	0
24	1909	82.6	0
24	1909	82.7	0
24	1909	82.8	0
24	1909	82.9	0
24	1909	83	0
24	1909	83.1	0
24	1909	83.2	0
24	1909	83.3	0
24	1909	83.4	0
24	1909	83.5	0
24	1909	83.6	0
24	1909	83.7	0
24	1909	83.8	0
24	1909	83.9	0
24	1909	84	0
24	1909	84.1	0
24	1909	84.2	0
24	1909	84.3	0
24	1909	84.4	0
24	1909	84.5	0
24	1909	84.6	0
24	1909	84.7	0
24	1909	84.8	0
24	1909	84.9	0
24	1909	85	0
24	1909	85.1	0
24	1909	85.2	0
24	1909	85.3	0
24	1909	85.4	0
24	1909	85.5	0
24	1909	85.6	0
24	1909	85.7	0
24	1909	85.8	0
24	1909	85.9	0
24	1909	86	0
24	1909	86.1	0
24	1909	86.2	0
24	1909	86.3	0
24	1909	86.4	0
24	1909	86.5	0
24	1909	86.6	0
24	1909	86.7	0
24	1909	86.8	0
24	1909	86.9	0
24	1909	87	0
24	1909	87.1	0
24	1909	87.2	0
24	1909	87.3	0
24	1909	87.4	0
24	1909	87.5	0
24	1909	87.6	0
24	1909	87.7	0
24	1909	87.8	0
24	1909	87.9	0
24	1909	88	0
24	1909	88.1	0
24	1909	88.2	0
24	1909	88.3	0
24	1909	88.4	0
24	1909	88.5	0
24	1909	88.6	0
24	1909	88.7	0
24	1909	88.8	0
24	1909	88.9	0
24	1909	89	0
24	1909	89.1	0
24	1909	89.2	0
24	1909	89.3	0
24	1909	89.4	0
24	1909	89.5	0
24	1909	89.6	0
24	1909	89.7	0
24	1909	89.8	0
24	1909	89.9	0
24	1909	90	0
24	1909	90.1	0
24	1909	90.2	0
24	1909	90.3	0
24	1909	90.4	0
24	1909	90.5	0
24	1909	90.6	0
24	1909	90.7	0
24	1909	90.8	0
24	1909	90.9	0
24	1909	91	0
24	1909	91.1	0
24	1909	91.2	0
24	1909	91.3	0
24	1909	91.4	0
24	1909	91.5	0
24	1909	91.6	0
24	1909	91.7	0
24	1909	91.8	0
24	1909	91.9	0
24	1909	92	0
24	1909	92.1	0
24	1909	92.2	0
24	1909	92.3	0
24	1909	92.4	0
24	1909	92.5	0
24	1909	92.6	0
24	1909	92.7	0
24	1909	92.8	0
24	1909	92.9	0
24	1909	93	0
24	1909	93.1	0
24	1909	93.2	0
24	1909	93.3	0
24	1909	93.4	0
24	1909	93.5	0
24	1909	93.6	0
24	1909	93.7	0
24	1909	93.8	0
24	1909	93.9	0
24	1909	94	0
24	1909	94.1	0
24	1909	94.2	0
24	1909	94.3	0
24	1909	94.4	0
24	1909	94.5	0
24	1909	94.6	0
24	1909	94.7	0
24	1909	94.8	0
24	1909	94.9	0
24	1909	95	0
24	1909	95.1	0
24	1909	95.2	0
24	1909	95.3	0
24	1909	95.4	0
24	1909	95.5	0
24	1909	95.6	0
24	1909	95.7	0
24	1909	95.8	0
24	1909	95.9	0
24	1909	96	0
24	1909	96.1	0
24	1909	96.2	0
24	1909	96.3	0
24	1909	96.4	0
24	1909	96.5	0
24	1909	96.6	0
24	1909	96.7	0
24	1909	96.8	0
24	1909	96.9	0
24	1909	97	0
24	1909	97.1	0
24	1909	97.2	0
24	1909	97.3	0
24	1909	97.4	0
24	1909	97.5	0
24	1909	97.6	0
24	1909	97.7	0
24	1909	97.8	0
24	1909	97.9	0
24	1909	98	0
24	1909	98.1	0
24	1909	98.2	0
24	1909	98.3	0
24	1909	98.4	0
24	1909	98.5	0
24	1909	98.6	0
24	1909	98.7	0
24	1909	98.8	0
24	1909	98.9	0
24	1909	99	0
24	1909	99.1	0
24	1909	99.2	0
24	1909	99.3	0
24	1909	99.4	0
24	1909	99.5	0
24	1909	99.6	0
24	1909	99.7	0
24	1909	99.8	0
24	1909	99.9	0
24	1909	100	0
24	1909	100.1	0
24	1909	100.2	0
24	1909	100.3	0
24	1909	100.4	0
24	1909	100.5	0
24	1909	100.6	0
24	1909	100.7	0
24	1909	100.8	0
24	1909	100.9	0
24	1909	101	0
24	1909	101.1	0
24	1909	101.2	0
24	1909	101.3	0
24	1909	101.4	0
24	1909	101.5	0
24	1909	101.6	0
24	1909	101.7	0
24	1909	101.8	0
24	1909	101.9	0
24	1909	102	0
24	1909	102.1	0
24	1909	102.2	0
24	1909	102.3	0
24	1909	102.4	0
24	1909	102.5	0
24	1909	102.6	0
24	1909	102.7	0
24	1909	102.8	0
24	1909	102.9	0
24	1909	103	0
24	1909	103.1	0
24	1909	103.2	0
24	1909	103.3	0
24	1909	103.4	0
24	1909	103.5	0
24	1909	103.6	0
24	1909	103.7	0
24	1909	103.8	0
24	1909	103.9	0
24	1909	104	0
24	1909	104.1	0
24	1909	104.2	0
24	1909	104.3	0
24	1909	104.4	0
24	1909	104.5	0
24	1909	104.6	0
24	1909	104.7	0
24	1909	104.8	0
24	1909	104.9	0
24	1909	105	0
24	1909	105.1	0
24	1909	105.2	0
24	1909	105.3	0
24	1909	105.4	0
24	1909	105.5	0
24	1909	105.6	0
24	1909	105.7	0
24	1909	105.8	0
24	1909	105.9	0
24	1909	106	0
24	1909	106.1	0
24	1909	106.2	0
24	1909	106.3	0
24	1909	106.4	0
24	1909	106.5	0
24	1909	106.6	0
24	1909	106.7	0
24	1909	106.8	0
24	1909	106.9	0
24	1909	107	0
24	1909	107.1	0
24	1909	107.2	0
24	1909	107.3	0
24	1909	107.4	0
24	1909	107.5	0
24	1909	107.6	0
24	1909	107.7	0
24	1909	107.8	0
24	1909	107.9	0
24	1909	108	0
24	1909	108.1	0
24	1909	108.2	0
24	1909	108.3	0
24	1909	108.4	0
24	1909	108.5	0
24	1909	108.6	0
24	1909	108.7	0
24	1909	108.8	0
24	1909	108.9	0
24	1909	109	0
24	1909	109.1	0
24	1909	109.2	0
24	1909	109.3	0
24	1909	109.4	0
24	1909	109.5	0
24	1909	109.6	0
24	1909	109.7	0
24	1909	109.8	0
24	1909	109.9	0
24	1909	110	0
24	1909	110.1	0
24	1909	110.2	0
24	1909	110.3	0
24	1909	110.4	0
24	1909	110.5	0
24	1909	110.6	0
24	1909	110.7	0
24	1909	110.8	0
24	1909	110.9	0
24	1909	111	0
24	1909	111.1	0
24	1909	111.2	0
24	1909	111.3	0
24	1909	111.4	0
24	1909	111.5	0
24	1909	111.6	0
24	1909	111.7	0
24	1909	111.8	0
24	1909	111.9	0
24	1909	112	0
24	1909	112.1	0
24	1909	112.2	0
24	1909	112.3	0
24	1909	112.4	0
24	1909	112.5	0
24	1909	112.6	0
24	1909	112.7	0
24	1909	112.8	0
24	1909	112.9	0
24	1909	113	0
24	1909	113.1	0
24	1909	113.2	0
24	1909	113.3	0
24	1909	113.4	0
24	1909	113.5	0
24	1909	113.6	0
24	1909	113.7	0
24	1909	113.8	0
24	1909	113.9	0
24	1909	114	0
24	1909	114.1	0
24	1909	114.2	0
24	1909	114.3	0
24	1909	114.4	0
24	1909	114.5	0
24	1909	114.6	0
24	1909	114.7	0
24	1909	114.8	0
24	1909	114.9	0
24	1909	115	0
24	1909	115.1	0
24	1909	115.2	0
24	1909	115.3	0
24	1909	115.4	0
24	1909	115.5	0
24	1909	115.6	0
24	1909	115.7	0
24	1909	115.8	0
24	1909	115.9	0
24	1909	116	0
24	1909	116.1	0
24	1909	116.2	0
24	1909	116.3	0
24	1909	116.4	0
24	1909	116.5	0
24	1909	116.6	0
24	1909	116.7	0
24	1909	116.8	0
24	1909	116.9	0
24	1909	117	0
24	1909	117.1	0
24	1909	117.2	0
24	1909	117.3	0
24	1909	117.4	0
24	1909	117.5	0
24	1909	117.6	0
24	1909	117.7	0
24	1909	117.8	0
24	1909	117.9	0
24	1909	118	0
24	1909	118.1	0
24	1909	118.2	0
24	1909	118.3	0
24	1909	118.4	0
24	1909	118.5	0
24	1909	118.6	0
24	1909	118.7	0
24	1909	118.8	0
24	1909	118.9	0
24	1909	119	0
24	1909	119.1	0
24	1909	119.2	0
24	1909	119.3	0
24	1909	119.4	0
24	1909	119.5	0
24	1909	119.6	0
24	1909	119.7	0
24	1909	119.8	0
24	1909	119.9	0
24	1909	120	0
24	1909	120.1	0
24	1909	120.2	0
24	1909	120.3	0
24	1909	120.4	0
24	1909	120.5	0
24	1909	120.6	0
24	1909	120.7	0
24	1909	120.8	0
24	1909	120.9	0
24	1909	121	0
24	1909	121.1	0
24	1909	121.2	0
24	1909	121.3	0
24	1909	121.4	0
24	1909	121.5	0
24	1909	121.6	0
24	1909	121.7	0
24	1909	121.8	0
24	1909	121.9	0
24	1909	122	0
24	1909	122.1	0
24	1909	122.2	0
24	1909	122.3	0
24	1909	122.4	0
24	1909	122.5	0
24	1909	122.6	0
24	1909	122.7	0
24	1909	122.8	0
24	1909	122.9	0
24	1909	123	0
24	1909	123.1	0
24	1909	123.2	0
24	1909	123.3	0
24	1909	123.4	0
24	1909	123.5	0
24	1909	123.6	0
24	1909	123.7	0
24	1909	123.8	0
24	1909	123.9	0
24	1909	124	0
24	1909	124.1	0
24	1909	124.2	0
24	1909	124.3	0
24	1909	124.4	0
24	1909	124.5	0
24	1909	124.6	0
24	1909	124.7	0
24	1909	124.8	0
24	1909	124.9	0
24	1909	125	0
24	1909	125.1	0
24	1909	125.2	0
24	1909	125.3	0
24	1909	125.4	0
24	1909	125.5	0
24	1909	125.6	0
24	1909	125.7	0
24	1909	125.8	0
24	1909	125.9	0
24	1909	126	0
24	1909	126.1	0
24	1909	126.2	0
24	1909	126.3	0
24	1909	126.4	0
24	1909	126.5	0
24	1909	126.6	0
24	1909	126.7	0
24	1909	126.8	0
24	1909	126.9	0
24	1909	127	0
24	1909	127.1	0
24	1909	127.2	0
24	1909	127.3	0
24	1909	127.4	0
24	1909	127.5	0
24	1909	127.6	0
24	1909	127.7	0
24	1909	127.8	0
24	1909	127.9	0
24	1909	128	0
24	1909	128.1	0
24	1909	128.2	0
24	1909	128.3	0
24	1909	128.4	0
24	1909	128.5	0
24	1909	128.6	0
24	1909	128.7	0
24	1909	128.8	0
24	1909	128.9	0
24	1909	129	0
24	1909	129.1	0
24	1909	129.2	0
24	1909	129.3	0
24	1909	129.4	0
24	1909	129.5	0
24	1909	129.6	0
24	1909	129.7	0
24	1909	129.8	0
24	1909	129.9	0
24	1909	130	0
24	1909	130.1	0
24	1909	130.2	0
24	1909	130.3	0
24	1909	130.4	0
24	1909	130.5	0
24	1909	130.6	0
24	1909	130.7	0
24	1909	130.8	0
24	1909	130.9	0
24	1909	131	0
24	1909	131.1	0
24	1909	131.2	0
24	1909	131.3	0
24	1909	131.4	0
24	1909	131.5	0
24	1909	131.6	0
24	1909	131.7	0
24	1909	131.8	0
24	1909	131.9	0
24	1909	132	0
24	1909	132.1	0
24	1909	132.2	0
24	1909	132.3	0
24	1909	132.4	0
24	1909	132.5	0
24	1909	132.6	0
24	1909	132.7	0
24	1909	132.8	0
24	1909	132.9	0
24	1909	133	0
24	1909	133.1	0
24	1909	133.2	0
24	1909	133.3	0
24	1909	133.4	0
24	1909	133.5	0
24	1909	133.6	0
24	1909	133.7	0
24	1909	133.8	0
24	1909	133.9	0
24	1909	134	0
24	1909	134.1	0
24	1909	134.2	0
24	1909	134.3	0
24	1909	134.4	0
24	1909	134.5	0
24	1909	134.6	0
24	1909	134.7	0
24	1909	134.8	0
24	1909	134.9	0
24	1909	135	0
24	1909	135.1	0
24	1909	135.2	0
24	1909	135.3	0
24	1909	135.4	0
24	1909	135.5	0
24	1909	135.6	0
24	1909	135.7	0
24	1909	135.8	0
24	1909	135.9	0
24	1909	136	0
24	1909	136.1	0
24	1909	136.2	0
24	1909	136.3	0
24	1909	136.4	0
24	1909	136.5	0
24	1909	136.6	0
24	1909	136.7	0
24	1909	136.8	0
24	1909	136.9	0
24	1909	137	0
24	1909	137.1	0
24	1909	137.2	0
24	1909	137.3	0
24	1909	137.4	0
24	1909	137.5	0
24	1909	137.6	0
24	1909	137.7	0
24	1909	137.8	0
24	1909	137.9	0
24	1909	138	0
24	1909	138.1	0
24	1909	138.2	0
24	1909	138.3	0
24	1909	138.4	0
24	1909	138.5	0
24	1909	138.6	0
24	1909	138.7	0
24	1909	138.8	0
24	1909	138.9	0
24	1909	139	0
24	1909	139.1	0
24	1909	139.2	0
24	1909	139.3	0
24	1909	139.4	0
24	1909	139.5	0
24	1909	139.6	0
24	1909	139.7	0
24	1909	139.8	0
24	1909	139.9	0
24	1909	140	0
24	1909	140.1	0
24	1909	140.2	0
24	1909	140.3	0
24	1909	140.4	0
24	1909	140.5	0
24	1909	140.6	0
24	1909	140.7	0
24	1909	140.8	0
24	1909	140.9	0
24	1909	141	0
24	1909	141.1	0
24	1909	141.2	0
24	1909	141.3	0
24	1909	141.4	0
24	1909	141.5	0
24	1909	141.6	0
24	1909	141.7	0
24	1909	141.8	0
24	1909	141.9	0
24	1909	142	0
24	1909	142.1	0
24	1909	142.2	0
24	1909	142.3	0
24	1909	142.4	0
24	1909	142.5	0
24	1909	142.6	0
24	1909	142.7	0
24	1909	142.8	0
24	1909	142.9	0
24	1909	143	0
24	1909	143.1	0
24	1909	143.2	0
24	1909	143.3	0
24	1909	143.4	0
24	1909	143.5	0
24	1909	143.6	0
24	1909	143.7	0
24	1909	143.8	0
24	1909	143.9	0
24	1909	144	0
24	1909	144.1	0
24	1909	144.2	0
24	1909	144.3	0
24	1909	144.4	0
24	1909	144.5	0
24	1909	144.6	0
24	1909	144.7	0
24	1909	144.8	0
24	1909	144.9	0
24	1909	145	0
24	1909	145.1	0
24	1909	145.2	0
24	1909	145.3	0
24	1909	145.4	0
24	1909	145.5	0
24	1909	145.6	0
24	1909	145.7	0
24	1909	145.8	0
24	1909	145.9	0
24	1909	146	0
24	1909	146.1	0
24	1909	146.2	0
24	1909	146.3	0
24	1909	146.4	0
24	1909	146.5	0
24	1909	146.6	0
24	1909	146.7	0
24	1909	146.8	0
24	1909	146.9	0
24	1909	147	0
24	1909	147.1	0
24	1909	147.2	0
24	1909	147.3	0
24	1909	147.4	0
24	1909	147.5	0
24	1909	147.6	0
24	1909	147.7	0
24	1909	147.8	0
24	1909	147.9	0
24	1909	148	0
24	1909	148.1	0
24	1909	148.2	0
24	1909	148.3	0
24	1909	148.4	0
24	1909	148.5	0
24	1909	148.6	0
24	1909	148.7	0
24	1909	148.8	0
24	1909	148.9	0
24	1909	149	0
24	1909	149.1	0
24	1909	149.2	0
24	1909	149.3	0
24	1909	149.4	0
24	1909	149.5	0
24	1909	149.6	0
24	1909	149.7	0
24	1909	149.8	0
24	1909	149.9	0
24	1909	150	0
24	1909	150.1	0
24	1909	150.2	0
24	1909	150.3	0
24	1909	150.4	0
24	1909	150.5	0
24	1909	150.6	0
24	1909	150.7	0
24	1909	150.8	0
24	1909	150.9	0
24	1909	151	0
24	1909	151.1	0
24	1909	151.2	0
24	1909	151.3	0
24	1909	151.4	0
24	1909	151.5	0
24	1909	151.6	0
24	1909	151.7	0
24	1909	151.8	0
24	1909	151.9	0
24	1909	152	0
24	1909	152.1	0
24	1909	152.2	0
24	1909	152.3	0
24	1909	152.4	0
24	1909	152.5	0
24	1909	152.6	0
24	1909	152.7	0
24	1909	152.8	0
24	1909	152.9	0
24	1909	153	0
24	1909	153.1	0
24	1909	153.2	0
24	1909	153.3	0
24	1909	153.4	0
24	1909	153.5	0
24	1909	153.6	0
24	1909	153.7	0
24	1909	153.8	0
24	1909	153.9	0
24	1909	154	0
24	1909	154.1	0
24	1909	154.2	0
24	1909	154.3	0
24	1909	154.4	0
24	1909	154.5	0
24	1909	154.6	0
24	1909	154.7	0
24	1909	154.8	0
24	1909	154.9	0
24	1909	155	0
24	1909	155.1	0
24	1909	155.2	0
24	1909	155.3	0
24	1909	155.4	0
24	1909	155.5	0
24	1909	155.6	0
24	1909	155.7	0
24	1909	155.8	0
24	1909	155.9	0
24	1909	156	0
24	1909	156.1	0
24	1909	156.2	0
24	1909	156.3	0
24	1909	156.4	0
24	1909	156.5	0
24	1909	156.6	0
24	1909	156.7	0
24	1909	156.8	0
24	1909	156.9	0
24	1909	157	0
24	1909	157.1	0
24	1909	157.2	0
24	1909	157.3	0
24	1909	157.4	0
24	1909	157.5	0
24	1909	157.6	0
24	1909	157.7	0
24	1909	157.8	0
24	1909	157.9	0
24	1909	158	0
24	1909	158.1	0
24	1909	158.2	0
24	1909	158.3	0
24	1909	158.4	0
24	1909	158.5	0
24	1909	158.6	0
24	1909	158.7	0
24	1909	158.8	0
24	1909	158.9	0
24	1909	159	0
24	1909	159.1	0
24	1909	159.2	0
24	1909	159.3	0
24	1909	159.4	0
24	1909	159.5	0
24	1909	159.6	0
24	1909	159.7	0
24	1909	159.8	0
24	1909	159.9	0
24	1909	160	0
24	1909	160.1	0
24	1909	160.2	0
24	1909	160.3	0
24	1909	160.4	0
24	1909	160.5	0
24	1909	160.6	0
24	1909	160.7	0
24	1909	160.8	0
24	1909	160.9	0
24	1909	161	0
24	1909	161.1	0
24	1909	161.2	0
24	1909	161.3	0
24	1909	161.4	0
24	1909	161.5	0
24	1909	161.6	0
24	1909	161.7	0
24	1909	161.8	0
24	1909	161.9	0
24	1909	162	0
24	1909	162.1	0
24	1909	162.2	0
24	1909	162.3	0
24	1909	162.4	0
24	1909	162.5	0
24	1909	162.6	0
24	1909	162.7	0
24	1909	162.8	0
24	1909	162.9	0
24	1909	163	0
24	1909	163.1	0
24	1909	163.2	0
24	1909	163.3	0
24	1909	163.4	0
24	1909	163.5	0
24	1909	163.6	0
24	1909	163.7	0
24	1909	163.8	0
24	1909	163.9	0
24	1909	164	0
24	1909	164.1	0
24	1909	164.2	0
24	1909	164.3	0
24	1909	164.4	0
24	1909	164.5	0
24	1909	164.6	0
24	1909	164.7	0
24	1909	164.8	0
24	1909	164.9	0
24	1909	165	0
24	1909	165.1	0
24	1909	165.2	0
24	1909	165.3	0
24	1909	165.4	0
24	1909	165.5	0
24	1909	165.6	0
24	1909	165.7	0
24	1909	165.8	0
24	1909	165.9	0
24	1909	166	0
24	1909	166.1	0
24	1909	166.2	0
24	1909	166.3	0
24	1909	166.4	0
24	1909	166.5	0
24	1909	166.6	0
24	1909	166.7	0
24	1909	166.8	0
24	1909	166.9	0
24	1909	167	0
24	1909	167.1	0
24	1909	167.2	0
24	1909	167.3	0
24	1909	167.4	0
24	1909	167.5	0
24	1909	167.6	0
24	1909	167.7	0
24	1909	167.8	0
24	1909	167.9	0
24	1909	168	0
24	1909	168.1	0
24	1909	168.2	0
24	1909	168.3	0
24	1909	168.4	0
24	1909	168.5	0
24	1909	168.6	0
24	1909	168.7	0
24	1909	168.8	0
24	1909	168.9	0
24	1909	169	0
24	1909	169.1	0
24	1909	169.2	0
24	1909	169.3	0
24	1909	169.4	0
24	1909	169.5	0
24	1909	169.6	0
24	1909	169.7	0
24	1909	169.8	0
24	1909	169.9	0
24	1909	170	0
24	1909	170.1	0
24	1909	170.2	0
24	1909	170.3	0
24	1909	170.4	0
24	1909	170.5	0
24	1909	170.6	0
24	1909	170.7	0
24	1909	170.8	0
24	1909	170.9	0
24	1909	171	0
24	1909	171.1	0
24	1909	171.2	0
24	1909	171.3	0
24	1909	171.4	0
24	1909	171.5	0
24	1909	171.6	0
24	1909	171.7	0
24	1909	171.8	0
24	1909	171.9	0
24	1909	172	0
24	1909	172.1	0
24	1909	172.2	0
24	1909	172.3	0
24	1909	172.4	0
24	1909	172.5	0
24	1909	172.6	0
24	1909	172.7	0
24	1909	172.8	0
24	1909	172.9	0
24	1909	173	0
24	1909	173.1	0
24	1909	173.2	0
24	1909	173.3	0
24	1909	173.4	0
24	1909	173.5	0
24	1909	173.6	0
24	1909	173.7	0
24	1909	173.8	0
24	1909	173.9	0
24	1909	174	0
24	1909	174.1	0
24	1909	174.2	0
24	1909	174.3	0
24	1909	174.4	0
24	1909	174.5	0
24	1909	174.6	0
24	1909	174.7	0
24	1909	174.8	0
24	1909	174.9	0
24	1909	175	0
24	1909	175.1	0
24	1909	175.2	0
24	1909	175.3	0
24	1909	175.4	0
24	1909	175.5	0
24	1909	175.6	0
24	1909	175.7	0
24	1909	175.8	0
24	1909	175.9	0
24	1909	176	0
24	1909	176.1	0
24	1909	176.2	0
24	1909	176.3	0
24	1909	176.4	0
24	1909	176.5	0
24	1909	176.6	0
24	1909	176.7	0
24	1909	176.8	0
24	1909	176.9	0
24	1909	177	0
24	1909	177.1	0
24	1909	177.2	0
24	1909	177.3	0
24	1909	177.4	0
24	1909	177.5	0
24	1909	177.6	0
24	1909	177.7	0
24	1909	177.8	0
24	1909	177.9	0
24	1909	178	0
24	1909	178.1	0
24	1909	178.2	0
24	1909	178.3	0
24	1909	178.4	0
24	1909	178.5	0
24	1909	178.6	0
24	1909	178.7	0
24	1909	178.8	0
24	1909	178.9	0
24	1909	179	0
24	1909	179.1	0
24	1909	179.2	0
24	1909	179.3	0
24	1909	179.4	0
24	1909	179.5	0
24	1909	179.6	0
24	1909	179.7	0
24	1909	179.8	0
24	1909	179.9	0
24	1909	180	0
24	1909	180.1	0
24	1909	180.2	0
24	1909	180.3	0
24	1909	180.4	0
24	1909	180.5	0
24	1909	180.6	0
24	1909	180.7	0
24	1909	180.8	0
24	1909	180.9	0
24	1909	181	0
24	1909	181.1	0
24	1909	181.2	0
24	1909	181.3	0
24	1909	181.4	0
24	1909	181.5	0
24	1909	181.6	0
24	1909	181.7	0
24	1909	181.8	0
24	1909	181.9	0
24	1909	182	0
24	1909	182.1	0
24	1909	182.2	0
24	1909	182.3	0
24	1909	182.4	0
24	1909	182.5	0
24	1909	182.6	0
24	1909	182.7	0
24	1909	182.8	0
24	1909	182.9	0
24	1909	183	0
24	1909	183.1	0
24	1909	183.2	0
24	1909	183.3	0
24	1909	183.4	0
24	1909	183.5	0
24	1909	183.6	0
24	1909	183.7	0
24	1909	183.8	0
24	1909	183.9	0
24	1909	184	0
24	1909	184.1	0
24	1909	184.2	0
24	1909	184.3	0
24	1909	184.4	0
24	1909	184.5	0
24	1909	184.6	0
24	1909	184.7	0
24	1909	184.8	0
24	1909	184.9	0
24	1909	185	0
24	1909	185.1	0
24	1909	185.2	0
24	1909	185.3	0
24	1909	185.4	0
24	1909	185.5	0
24	1909	185.6	0
24	1909	185.7	0
24	1909	185.75877811228	0
25	1909	0.1	0
25	1909	0.2	0
25	1909	0.3	0
25	1909	0.4	0
25	1909	0.5	0
25	1909	0.6	0
25	1909	0.7	0
25	1909	0.8	0
25	1909	0.9	0
25	1909	1	0
25	1909	1.1	0
25	1909	1.2	0
25	1909	1.3	0
25	1909	1.4	0
25	1909	1.5	0
25	1909	1.6	0
25	1909	1.7	0
25	1909	1.8	0
25	1909	1.9	0
25	1909	2	0
25	1909	2.1	0
25	1909	2.2	0
25	1909	2.3	0
25	1909	2.4	0
25	1909	2.5	0
25	1909	2.6	0
25	1909	2.7	0
25	1909	2.8	0
25	1909	2.9	0
25	1909	3	0
25	1909	3.1	0
25	1909	3.2	0
25	1909	3.3	0
25	1909	3.4	0
25	1909	3.5	0
25	1909	3.6	0
25	1909	3.7	0
25	1909	3.8	0
25	1909	3.9	0
25	1909	4	0
25	1909	4.1	0
25	1909	4.2	0
25	1909	4.3	0
25	1909	4.4	0
25	1909	4.5	0
25	1909	4.6	0
25	1909	4.7	0
25	1909	4.8	0
25	1909	4.9	0
25	1909	5	0
25	1909	5.1	0
25	1909	5.2	0
25	1909	5.3	0
25	1909	5.4	0
25	1909	5.5	0
25	1909	5.6	0
25	1909	5.7	0
25	1909	5.8	0
25	1909	5.9	0
25	1909	6	0
25	1909	6.1	0
25	1909	6.2	0
25	1909	6.3	0
25	1909	6.4	0
25	1909	6.5	0
25	1909	6.6	0
25	1909	6.7	0
25	1909	6.8	0
25	1909	6.9	0
25	1909	7	0
25	1909	7.1	0
25	1909	7.2	0
25	1909	7.3	0
25	1909	7.4	0
25	1909	7.5	0
25	1909	7.6	0
25	1909	7.7	0
25	1909	7.8	0
25	1909	7.9	0
25	1909	8	0
25	1909	8.1	0
25	1909	8.2	0
25	1909	8.3	0
25	1909	8.4	0
25	1909	8.5	0
25	1909	8.6	0
25	1909	8.7	0
25	1909	8.8	0
25	1909	8.9	0
25	1909	9	0
25	1909	9.1	0
25	1909	9.2	0
25	1909	9.3	0
25	1909	9.4	0
25	1909	9.5	0
25	1909	9.6	0
25	1909	9.7	0
25	1909	9.8	0
25	1909	9.9	0
25	1909	10	0
25	1909	10.1	0
25	1909	10.2	0
25	1909	10.3	0
25	1909	10.4	0
25	1909	10.5	0
25	1909	10.6	0
25	1909	10.7	0
25	1909	10.8	0
25	1909	10.9	0
25	1909	11	0
25	1909	11.1	0
25	1909	11.2	0
25	1909	11.3	0
25	1909	11.4	0
25	1909	11.5	0
25	1909	11.6	0
25	1909	11.7	0
25	1909	11.8	0
25	1909	11.9	0
25	1909	12	0
25	1909	12.1	0
25	1909	12.2	0
25	1909	12.3	0
25	1909	12.4	0
25	1909	12.5	0
25	1909	12.6	0
25	1909	12.7	0
25	1909	12.8	0
25	1909	12.9	0
25	1909	13	0
25	1909	13.1	0
25	1909	13.2	0
25	1909	13.3	0
25	1909	13.4	0
25	1909	13.5	0
25	1909	13.6	0
25	1909	13.7	0
25	1909	13.8	0
25	1909	13.9	0
25	1909	14	0
25	1909	14.1	0
25	1909	14.2	0
25	1909	14.3	0
25	1909	14.4	0
25	1909	14.5	0
25	1909	14.6	0
25	1909	14.7	0
25	1909	14.8	0
25	1909	14.9	0
25	1909	15	0
25	1909	15.1	0
25	1909	15.2	0
25	1909	15.3	0
25	1909	15.4	0
25	1909	15.5	0
25	1909	15.6	0
25	1909	15.7	0
25	1909	15.8	0
25	1909	15.9	0
25	1909	16	0
25	1909	16.1	0
25	1909	16.2	0
25	1909	16.3	0
25	1909	16.4	0
25	1909	16.5	0
25	1909	16.6	0
25	1909	16.7	0
25	1909	16.8	0
25	1909	16.9	0
25	1909	17	0
25	1909	17.1	0
25	1909	17.2	0
25	1909	17.3	0
25	1909	17.4	0
25	1909	17.5	0
25	1909	17.6	0
25	1909	17.7	0
25	1909	17.8	0
25	1909	17.9	0
25	1909	18	0
25	1909	18.1	0
25	1909	18.2	0
25	1909	18.3	0
25	1909	18.4	0
25	1909	18.5	0
25	1909	18.6	0
25	1909	18.7	0
25	1909	18.8	0
25	1909	18.9	0
25	1909	19	0
25	1909	19.1	0
25	1909	19.2	0
25	1909	19.3	0
25	1909	19.4	0
25	1909	19.5	0
25	1909	19.6	0
25	1909	19.7	0
25	1909	19.8	0
25	1909	19.9	0
25	1909	20	0
25	1909	20.1	0
25	1909	20.2	0
25	1909	20.3	0
25	1909	20.4	0
25	1909	20.5	0
25	1909	20.6	0
25	1909	20.7	0
25	1909	20.8	0
25	1909	20.9	0
25	1909	21	0
25	1909	21.1	0
25	1909	21.2	0
25	1909	21.3	0
25	1909	21.4	0
25	1909	21.5	0
25	1909	21.6	0
25	1909	21.7	0
25	1909	21.8	0
25	1909	21.9	0
25	1909	22	0
25	1909	22.1	0
25	1909	22.2	0
25	1909	22.3	0
25	1909	22.4	0
25	1909	22.5	0
25	1909	22.6	0
25	1909	22.7	0
25	1909	22.8	0
25	1909	22.9	0
25	1909	23	0
25	1909	23.1	0
25	1909	23.2	0
25	1909	23.3	0
25	1909	23.4	0
25	1909	23.5	0
25	1909	23.6	0
25	1909	23.7	0
25	1909	23.8	0
25	1909	23.9	0
25	1909	24	0
25	1909	24.1	0
25	1909	24.2	0
25	1909	24.3	0
25	1909	24.4	0
25	1909	24.5	0
25	1909	24.6	0
25	1909	24.7	0
25	1909	24.8	0
25	1909	24.9	0
25	1909	25	0
25	1909	25.1	0
25	1909	25.2	0
25	1909	25.3	0
25	1909	25.4	0
25	1909	25.5	0
25	1909	25.6	0
[...]
58	1909	56.7	0
58	1909	56.8	0
58	1909	56.9	0
58	1909	57	0
58	1909	57.1	0
58	1909	57.2	0
58	1909	57.3	0
58	1909	57.4	0
58	1909	57.5	0
58	1909	57.6	0
58	1909	57.7	0
58	1909	57.8	0
58	1909	57.9	0
58	1909	58	0
58	1909	58.1	0
58	1909	58.2	0
58	1909	58.3	0
58	1909	58.4	0
58	1909	58.5	0
58	1909	58.6	0
58	1909	58.7	0
58	1909	58.8	0
58	1909	58.9	0
58	1909	59	0
58	1909	59.1	0
58	1909	59.2	0
58	1909	59.3	0
58	1909	59.4	0
58	1909	59.5	0
58	1909	59.6	0
58	1909	59.7	0
58	1909	59.8	0
58	1909	59.9	0
58	1909	60	0
58	1909	60.1	0
58	1909	60.2	0
58	1909	60.3	0
58	1909	60.4	0
58	1909	60.5	0
58	1909	60.6	0
58	1909	60.7	0
58	1909	60.8	0
58	1909	60.9	0
58	1909	61	0
58	1909	61.1	0
58	1909	61.2	0
58	1909	61.3	0
58	1909	61.4	0
58	1909	61.5	0
58	1909	61.6	0
58	1909	61.7	0
58	1909	61.8	0
58	1909	61.9	0
58	1909	62	0
58	1909	62.1	0
58	1909	62.2	0
58	1909	62.3	0
58	1909	62.4	0
58	1909	62.5	0
58	1909	62.6	0
58	1909	62.7	0
58	1909	62.8	0
58	1909	62.9	0
58	1909	63	0
58	1909	63.1	0
58	1909	63.2	0
58	1909	63.3	0
58	1909	63.4	0
58	1909	63.5	0
58	1909	63.6	0
58	1909	63.7	0
58	1909	63.8	0
58	1909	63.9	0
58	1909	64	0
58	1909	64.1	0
58	1909	64.2	0
58	1909	64.3	0
58	1909	64.4	0
58	1909	64.5	0
58	1909	64.6	0
58	1909	64.7	0
58	1909	64.8	0
58	1909	64.9	0
58	1909	65	0
58	1909	65.1	0
58	1909	65.2	0
58	1909	65.3	0
58	1909	65.4	0
58	1909	65.5	0
58	1909	65.6	0
58	1909	65.7	0
58	1909	65.8	0
58	1909	65.9	0
58	1909	66	0
58	1909	66.1	0
58	1909	66.2	0
58	1909	66.3	0
58	1909	66.4	0
58	1909	66.5	0
58	1909	66.6	0
58	1909	66.7	0
58	1909	66.8	0
58	1909	66.9	0
58	1909	67	0
58	1909	67.1	0
58	1909	67.2	0
58	1909	67.3	0
58	1909	67.4	0
58	1909	67.5	0
58	1909	67.6	0
58	1909	67.7	0
58	1909	67.8	0
58	1909	67.9	0
58	1909	68	0
58	1909	68.1	0
58	1909	68.2	0
58	1909	68.3	0
58	1909	68.4	0
58	1909	68.5	0
58	1909	68.6	0
58	1909	68.7	0
58	1909	68.8	0
58	1909	68.9	0
58	1909	69	0
58	1909	69.1	0
58	1909	69.2	0
58	1909	69.3	0
58	1909	69.4	0
58	1909	69.5	0
58	1909	69.6	0
58	1909	69.7	0
58	1909	69.8	0
58	1909	69.9	0
58	1909	70	0
58	1909	70.1	0
58	1909	70.2	0
58	1909	70.3	0
58	1909	70.4	0
58	1909	70.5	0
58	1909	70.6	0
58	1909	70.7	0
58	1909	70.8	0
58	1909	70.9	0
58	1909	71	0
58	1909	71.1	0
58	1909	71.2	0
58	1909	71.3	0
58	1909	71.4	0
58	1909	71.5	0
58	1909	71.6	0
58	1909	71.7	0
58	1909	71.8	0
58	1909	71.9	0
58	1909	72	0
58	1909	72.1	0
58	1909	72.2	0
58	1909	72.3	0
58	1909	72.4	0
58	1909	72.5	0
58	1909	72.6	0
58	1909	72.7	0
58	1909	72.8	0
58	1909	72.9	0
58	1909	73	0
58	1909	73.1	0
58	1909	73.2	0
58	1909	73.3	0
58	1909	73.4	0
58	1909	73.5	0
58	1909	73.6	0
58	1909	73.7	0
58	1909	73.8	0
58	1909	73.9	0
58	1909	74	0
58	1909	74.1	0
58	1909	74.2	0
58	1909	74.3	0
58	1909	74.4	0
58	1909	74.5	0
58	1909	74.6	0
58	1909	74.7	0
58	1909	74.8	0
58	1909	74.9	0
58	1909	75	0
58	1909	75.1	0
58	1909	75.2	0
58	1909	75.3	0
58	1909	75.4	0
58	1909	75.5	0
58	1909	75.6	0
58	1909	75.7	0
58	1909	75.8	0
58	1909	75.9	0
58	1909	76	0
58	1909	76.1	0
58	1909	76.2	0
58	1909	76.3	0
58	1909	76.4	0
58	1909	76.5	0
58	1909	76.6	0
58	1909	76.7	0
58	1909	76.8	0
58	1909	76.9	0
58	1909	77	0
58	1909	77.1	0
58	1909	77.2	0
58	1909	77.3	0
58	1909	77.4	0
58	1909	77.5	0
58	1909	77.6	0
58	1909	77.7	0
58	1909	77.8	0
58	1909	77.9	0
58	1909	78	0
58	1909	78.1	0
58	1909	78.2	0
58	1909	78.3	0
58	1909	78.4	0
58	1909	78.5	0
58	1909	78.6	0
58	1909	78.7	0
58	1909	78.8	0
58	1909	78.9	0
58	1909	79	0
58	1909	79.1	0
58	1909	79.2	0
58	1909	79.3	0
58	1909	79.4	0
58	1909	79.5	0
58	1909	79.6	0
58	1909	79.7	0
58	1909	79.8	0
58	1909	79.9	0
58	1909	80	0
58	1909	80.1	0
58	1909	80.2	0
58	1909	80.3	0
58	1909	80.4	0
58	1909	80.5	0
58	1909	80.6	0
58	1909	80.7	0
58	1909	80.8	0
58	1909	80.9	0
58	1909	81	0
58	1909	81.1	0
58	1909	81.2	0
58	1909	81.3	0
58	1909	81.4	0
58	1909	81.5	0
58	1909	81.6	0
58	1909	81.7	0
58	1909	81.8	0
58	1909	81.9	0
58	1909	82	0
58	1909	82.1	0
58	1909	82.2	0
58	1909	82.3	0
58	1909	82.4	0
58	1909	82.5	0
58	1909	82.6	0
58	1909	82.7	0
58	1909	82.8	0
58	1909	82.9	0
58	1909	83	0
58	1909	83.1	0
58	1909	83.2	0
58	1909	83.3	0
58	1909	83.4	0
58	1909	83.5	0
58	1909	83.6	0
58	1909	83.7	0
58	1909	83.8	0
58	1909	83.9	0
58	1909	84	0
58	1909	84.1	0
58	1909	84.2	0
58	1909	84.3	0
58	1909	84.4	0
58	1909	84.5	0
58	1909	84.6	0
58	1909	84.7	0
58	1909	84.8	0
58	1909	84.9	0
58	1909	85	0
58	1909	85.1	0
58	1909	85.2	0
58	1909	85.3	0
58	1909	85.4	0
58	1909	85.5	0
58	1909	85.6	0
58	1909	85.7	0
58	1909	85.8	0
58	1909	85.9	0
58	1909	86	0
58	1909	86.1	0
58	1909	86.2	0
58	1909	86.3	0
58	1909	86.4	0
58	1909	86.5	0
58	1909	86.6	0
58	1909	86.7	0
58	1909	86.8	0
58	1909	86.9	0
58	1909	87	0
58	1909	87.1	0
58	1909	87.2	0
58	1909	87.3	0
58	1909	87.4	0
58	1909	87.5	0
58	1909	87.6	0
58	1909	87.7	0
58	1909	87.8	0
58	1909	87.9	0
58	1909	88	0
58	1909	88.1	0
58	1909	88.2	0
58	1909	88.3	0
58	1909	88.4	0
58	1909	88.5	0
58	1909	88.6	0
58	1909	88.7	0
58	1909	88.8	0
58	1909	88.9	0
58	1909	89	0
58	1909	89.1	0
58	1909	89.2	0
58	1909	89.3	0
58	1909	89.4	0
58	1909	89.5	0
58	1909	89.6	0
58	1909	89.7	0
58	1909	89.8	0
58	1909	89.9	0
58	1909	90	0
58	1909	90.1	0
58	1909	90.2	0
58	1909	90.3	0
58	1909	90.4	0
58	1909	90.5	0
58	1909	90.6	0
58	1909	90.7	0
58	1909	90.8	0
58	1909	90.9	0
58	1909	91	0
58	1909	91.1	0
58	1909	91.2	0
58	1909	91.3	0
58	1909	91.4	0
58	1909	91.5	0
58	1909	91.6	0
58	1909	91.7	0
58	1909	91.8	0
58	1909	91.9	0
58	1909	92	0
58	1909	92.1	0
58	1909	92.2	0
58	1909	92.3	0
58	1909	92.4	0
58	1909	92.5	0
58	1909	92.6	0
58	1909	92.7	0
58	1909	92.8	0
58	1909	92.9	0
58	1909	93	0
58	1909	93.1	0
58	1909	93.2	0
58	1909	93.3	0
58	1909	93.4	0
58	1909	93.5	0
58	1909	93.6	0
58	1909	93.7	0
58	1909	93.8	0
58	1909	93.9	0
58	1909	94	0
58	1909	94.1	0
58	1909	94.2	0
58	1909	94.3	0
58	1909	94.4	0
58	1909	94.5	0
58	1909	94.6	0
58	1909	94.7	0
58	1909	94.8	0
58	1909	94.9	0
58	1909	95	0
58	1909	95.1	0
58	1909	95.2	0
58	1909	95.3	0
58	1909	95.4	0
58	1909	95.5	0
58	1909	95.6	0
58	1909	95.7	0
58	1909	95.8	0
58	1909	95.9	0
58	1909	96	0
58	1909	96.1	0
58	1909	96.2	0
58	1909	96.3	0
58	1909	96.4	0
58	1909	96.5	0
58	1909	96.6	0
58	1909	96.7	0
58	1909	96.8	0
58	1909	96.9	0
58	1909	97	0
58	1909	97.1	0
58	1909	97.2	0
58	1909	97.3	0
58	1909	97.4	0
58	1909	97.5	0
58	1909	97.6	0
58	1909	97.7	0
58	1909	97.8	0
58	1909	97.9	0
58	1909	98	0
58	1909	98.1	0
58	1909	98.2	0
58	1909	98.3	0
58	1909	98.4	0
58	1909	98.5	0
58	1909	98.6	0
58	1909	98.7	0
58	1909	98.8	0
58	1909	98.9	0
58	1909	99	0
58	1909	99.1	0
58	1909	99.2	0
58	1909	99.3	0
58	1909	99.4	0
58	1909	99.5	0
58	1909	99.6	0
58	1909	99.7	0
58	1909	99.8	0
58	1909	99.9	0
58	1909	100	0
58	1909	100.1	0
58	1909	100.2	0
58	1909	100.3	0
58	1909	100.4	0
58	1909	100.5	0
58	1909	100.6	0
58	1909	100.7	0
58	1909	100.8	0
58	1909	100.9	0
58	1909	101	0
58	1909	101.1	0
58	1909	101.2	0
58	1909	101.3	0
58	1909	101.4	0
58	1909	101.5	0
58	1909	101.6	0
58	1909	101.7	0
58	1909	101.8	0
58	1909	101.9	0
58	1909	102	0
58	1909	102.1	0
58	1909	102.2	0
58	1909	102.3	0
58	1909	102.4	0
58	1909	102.5	0
58	1909	102.6	0
58	1909	102.7	0
58	1909	102.8	0
58	1909	102.9	0
58	1909	103	0
58	1909	103.1	0
58	1909	103.2	0
58	1909	103.3	0
58	1909	103.4	0
58	1909	103.5	0
58	1909	103.6	0
58	1909	103.7	0
58	1909	103.8	0
58	1909	103.9	0
58	1909	104	0
58	1909	104.1	0
58	1909	104.2	0
58	1909	104.3	0
58	1909	104.4	0
58	1909	104.5	0
58	1909	104.6	0
58	1909	104.7	0
58	1909	104.8	0
58	1909	104.9	0
58	1909	105	0
58	1909	105.1	0
58	1909	105.2	0
58	1909	105.3	0
58	1909	105.4	0
58	1909	105.5	0
58	1909	105.6	0
58	1909	105.7	0
58	1909	105.8	0
58	1909	105.9	0
58	1909	106	0
58	1909	106.1	0
58	1909	106.2	0
58	1909	106.3	0
58	1909	106.4	0
58	1909	106.5	0
58	1909	106.6	0
58	1909	106.7	0
58	1909	106.8	0
58	1909	106.9	0
58	1909	107	0
58	1909	107.1	0
58	1909	107.2	0
58	1909	107.3	0
58	1909	107.4	0
58	1909	107.5	0
58	1909	107.6	0
58	1909	107.7	0
58	1909	107.8	0
58	1909	107.9	0
58	1909	108	0
58	1909	108.1	0
58	1909	108.2	0
58	1909	108.3	0
58	1909	108.4	0
58	1909	108.5	0
58	1909	108.6	0
58	1909	108.7	0
58	1909	108.8	0
58	1909	108.9	0
58	1909	109	0
58	1909	109.1	0
58	1909	109.2	0
58	1909	109.3	0
58	1909	109.4	0
58	1909	109.5	0
58	1909	109.6	0
58	1909	109.7	0
58	1909	109.8	0
58	1909	109.9	0
58	1909	110	0
58	1909	110.1	0
58	1909	110.2	0
58	1909	110.3	0
58	1909	110.4	0
58	1909	110.5	0
58	1909	110.6	0
58	1909	110.7	0
58	1909	110.8	0
58	1909	110.9	0
58	1909	111	0
58	1909	111.1	0
58	1909	111.2	0
58	1909	111.3	0
58	1909	111.4	0
58	1909	111.5	0
58	1909	111.6	0
58	1909	111.7	0
58	1909	111.8	0
58	1909	111.9	0
58	1909	112	0
58	1909	112.1	0
58	1909	112.2	0
58	1909	112.3	0
58	1909	112.4	0
58	1909	112.5	0
58	1909	112.6	0
58	1909	112.7	0
58	1909	112.8	0
58	1909	112.9	0
58	1909	113	0
58	1909	113.1	0
58	1909	113.2	0
58	1909	113.3	0
58	1909	113.4	0
58	1909	113.5	0
58	1909	113.6	0
58	1909	113.7	0
58	1909	113.8	0
58	1909	113.9	0
58	1909	114	0
58	1909	114.1	0
58	1909	114.2	0
58	1909	114.3	0
58	1909	114.4	0
58	1909	114.5	0
58	1909	114.6	0
58	1909	114.7	0
58	1909	114.8	0
58	1909	114.9	0
58	1909	115	0
58	1909	115.1	0
58	1909	115.2	0
58	1909	115.3	0
58	1909	115.4	0
58	1909	115.5	0
58	1909	115.6	0
58	1909	115.7	0
58	1909	115.8	0
58	1909	115.9	0
58	1909	116	0
58	1909	116.1	0
58	1909	116.2	0
58	1909	116.3	0
58	1909	116.4	0
58	1909	116.5	0
58	1909	116.6	0
58	1909	116.7	0
58	1909	116.8	0
58	1909	116.9	0
58	1909	117	0
58	1909	117.1	0
58	1909	117.2	0
58	1909	117.3	0
58	1909	117.4	0
58	1909	117.5	0
58	1909	117.6	0
58	1909	117.7	0
58	1909	117.8	0
58	1909	117.9	0
58	1909	118	0
58	1909	118.1	0
58	1909	118.2	0
58	1909	118.3	0
58	1909	118.4	0
58	1909	118.5	0
58	1909	118.6	0
58	1909	118.7	0
58	1909	118.8	0
58	1909	118.9	0
58	1909	119	0
58	1909	119.1	0
58	1909	119.2	0
58	1909	119.3	0
58	1909	119.4	0
58	1909	119.5	0
58	1909	119.6	0
58	1909	119.7	0
58	1909	119.8	0
58	1909	119.9	0
58	1909	120	0
58	1909	120.1	0
58	1909	120.2	0
58	1909	120.3	0
58	1909	120.4	0
58	1909	120.5	0
58	1909	120.6	0
58	1909	120.7	0
58	1909	120.8	0
58	1909	120.9	0
58	1909	121	0
58	1909	121.1	0
58	1909	121.2	0
58	1909	121.3	0
58	1909	121.4	0
58	1909	121.5	0
58	1909	121.6	0
58	1909	121.7	0
58	1909	121.8	0
58	1909	121.9	0
58	1909	122	0
58	1909	122.1	0
58	1909	122.2	0
58	1909	122.3	0
58	1909	122.4	0
58	1909	122.5	0
58	1909	122.6	0
58	1909	122.7	0
58	1909	122.8	0
58	1909	122.9	0
58	1909	123	0
58	1909	123.1	0
58	1909	123.2	0
58	1909	123.3	0
58	1909	123.4	0
58	1909	123.5	0
58	1909	123.6	0
58	1909	123.7	0
58	1909	123.8	0
58	1909	123.9	0
58	1909	124	0
58	1909	124.1	0
58	1909	124.2	0
58	1909	124.3	0
58	1909	124.4	0
58	1909	124.5	0
58	1909	124.6	0
58	1909	124.7	0
58	1909	124.8	0
58	1909	124.9	0
58	1909	125	0
58	1909	125.1	0
58	1909	125.2	0
58	1909	125.3	0
58	1909	125.4	0
58	1909	125.5	0
58	1909	125.6	0
58	1909	125.7	0
58	1909	125.8	0
58	1909	125.9	0
58	1909	126	0
58	1909	126.1	0
58	1909	126.2	0
58	1909	126.3	0
58	1909	126.4	0
58	1909	126.5	0
58	1909	126.6	0
58	1909	126.7	0
58	1909	126.8	0
58	1909	126.9	0
58	1909	127	0
58	1909	127.1	0
58	1909	127.2	0
58	1909	127.3	0
58	1909	127.4	0
58	1909	127.5	0
58	1909	127.6	0
58	1909	127.7	0
58	1909	127.8	0
58	1909	127.9	0
58	1909	128	0
58	1909	128.1	0
58	1909	128.2	0
58	1909	128.3	0
58	1909	128.4	0
58	1909	128.5	0
58	1909	128.6	0
58	1909	128.7	0
58	1909	128.8	0
58	1909	128.9	0
58	1909	129	0
58	1909	129.1	0
58	1909	129.2	0
58	1909	129.3	0
58	1909	129.4	0
58	1909	129.5	0
58	1909	129.6	0
58	1909	129.7	0
58	1909	129.8	0
58	1909	129.9	0
58	1909	130	0
58	1909	130.1	0
58	1909	130.2	0
58	1909	130.3	0
58	1909	130.4	0
58	1909	130.5	0
58	1909	130.6	0
58	1909	130.7	0
58	1909	130.8	0
58	1909	130.9	0
58	1909	131	0
58	1909	131.1	0
58	1909	131.2	0
58	1909	131.3	0
58	1909	131.4	0
58	1909	131.5	0
58	1909	131.6	0
58	1909	131.7	0
58	1909	131.8	0
58	1909	131.9	0
58	1909	132	0
58	1909	132.1	0
58	1909	132.2	0
58	1909	132.3	0
58	1909	132.4	0
58	1909	132.5	0
58	1909	132.6	0
58	1909	132.7	0
58	1909	132.8	0
58	1909	132.9	0
58	1909	133	0
58	1909	133.1	0
58	1909	133.2	0
58	1909	133.3	0
58	1909	133.4	0
58	1909	133.5	0
58	1909	133.6	0
58	1909	133.7	0
58	1909	133.8	0
58	1909	133.9	0
58	1909	134	0
58	1909	134.1	0
58	1909	134.2	0
58	1909	134.3	0
58	1909	134.4	0
58	1909	134.5	0
58	1909	134.6	0
58	1909	134.7	0
58	1909	134.8	0
58	1909	134.9	0
58	1909	135	0
58	1909	135.1	0
58	1909	135.2	0
58	1909	135.3	0
58	1909	135.4	0
58	1909	135.5	0
58	1909	135.6	0
58	1909	135.7	0
58	1909	135.8	0
58	1909	135.9	0
58	1909	136	0
58	1909	136.1	0
58	1909	136.2	0
58	1909	136.3	0
58	1909	136.4	0
58	1909	136.5	0
58	1909	136.6	0
58	1909	136.7	0
58	1909	136.8	0
58	1909	136.9	0
58	1909	137	0
58	1909	137.1	0
58	1909	137.2	0
58	1909	137.3	0
58	1909	137.4	0
58	1909	137.5	0
58	1909	137.6	0
58	1909	137.7	0
58	1909	137.8	0
58	1909	137.9	0
58	1909	138	0
58	1909	138.1	0
58	1909	138.2	0
58	1909	138.3	0
58	1909	138.4	0
58	1909	138.5	0
58	1909	138.6	0
58	1909	138.7	0
58	1909	138.8	0
58	1909	138.9	0
58	1909	139	0
58	1909	139.1	0
58	1909	139.2	0
58	1909	139.3	0
58	1909	139.4	0
58	1909	139.5	0
58	1909	139.6	0
58	1909	139.7	0
58	1909	139.8	0
58	1909	139.9	0
58	1909	140	0
58	1909	140.1	0
58	1909	140.2	0
58	1909	140.3	0
58	1909	140.4	0
58	1909	140.5	0
58	1909	140.6	0
58	1909	140.7	0
58	1909	140.8	0
58	1909	140.9	0
58	1909	141	0
58	1909	141.1	0
58	1909	141.2	0
58	1909	141.3	0
58	1909	141.4	0
58	1909	141.5	0
58	1909	141.6	0
58	1909	141.7	0
58	1909	141.8	0
58	1909	141.9	0
58	1909	142	0
58	1909	142.1	0
58	1909	142.2	0
58	1909	142.3	0
58	1909	142.4	0
58	1909	142.5	0
58	1909	142.6	0
58	1909	142.7	0
58	1909	142.8	0
58	1909	142.9	0
58	1909	143	0
58	1909	143.1	0
58	1909	143.2	0
58	1909	143.3	0
58	1909	143.4	0
58	1909	143.5	0
58	1909	143.6	0
58	1909	143.7	0
58	1909	143.8	0
58	1909	143.9	0
58	1909	144	0
58	1909	144.1	0
58	1909	144.2	0
58	1909	144.3	0
58	1909	144.4	0
58	1909	144.5	0
58	1909	144.6	0
58	1909	144.7	0
58	1909	144.8	0
58	1909	144.9	0
58	1909	145	0
58	1909	145.1	0
58	1909	145.2	0
58	1909	145.3	0
58	1909	145.4	0
58	1909	145.5	0
58	1909	145.6	0
58	1909	145.7	0
58	1909	145.8	0
58	1909	145.9	0
58	1909	146	0
58	1909	146.1	0
58	1909	146.2	0
58	1909	146.3	0
58	1909	146.4	0
58	1909	146.5	0
58	1909	146.6	0
58	1909	146.7	0
58	1909	146.8	0
58	1909	146.9	0
58	1909	147	0
58	1909	147.1	0
58	1909	147.2	0
58	1909	147.3	0
58	1909	147.4	0
58	1909	147.5	0
58	1909	147.6	0
58	1909	147.7	0
58	1909	147.8	0
58	1909	147.9	0
58	1909	148	0
58	1909	148.1	0
58	1909	148.2	0
58	1909	148.3	0
58	1909	148.4	0
58	1909	148.5	0
58	1909	148.6	0
58	1909	148.7	0
58	1909	148.8	0
58	1909	148.9	0
58	1909	149	0
58	1909	149.1	0
58	1909	149.2	0
58	1909	149.3	0
58	1909	149.4	0
58	1909	149.5	0
58	1909	149.6	0
58	1909	149.7	0
58	1909	149.8	0
58	1909	149.9	0
58	1909	150	0
58	1909	150.1	0
58	1909	150.2	0
58	1909	150.3	0
58	1909	150.4	0
58	1909	150.5	0
58	1909	150.6	0
58	1909	150.7	0
58	1909	150.8	0
58	1909	150.9	0
58	1909	151	0
58	1909	151.1	0
58	1909	151.2	0
58	1909	151.3	0
58	1909	151.4	0
58	1909	151.5	0
58	1909	151.6	0
58	1909	151.7	0
58	1909	151.8	0
58	1909	151.9	0
58	1909	152	0
58	1909	152.1	0
58	1909	152.2	0
58	1909	152.3	0
58	1909	152.4	0
58	1909	152.5	0
58	1909	152.6	0
58	1909	152.7	0
58	1909	152.8	0
58	1909	152.9	0
58	1909	153	0
58	1909	153.1	0
58	1909	153.2	0
58	1909	153.3	0
58	1909	153.4	0
58	1909	153.5	0
58	1909	153.6	0
58	1909	153.7	0
58	1909	153.8	0
58	1909	153.9	0
58	1909	154	0
58	1909	154.1	0
58	1909	154.2	0
58	1909	154.3	0
58	1909	154.4	0
58	1909	154.5	0
58	1909	154.6	0
58	1909	154.7	0
58	1909	154.8	0
58	1909	154.9	0
58	1909	155	0
58	1909	155.1	0
58	1909	155.2	0
58	1909	155.3	0
58	1909	155.4	0
58	1909	155.5	0
58	1909	155.6	0
58	1909	155.7	0
58	1909	155.8	0
58	1909	155.9	0
58	1909	156	0
58	1909	156.1	0
58	1909	156.2	0
58	1909	156.3	0
58	1909	156.4	0
58	1909	156.5	0
58	1909	156.6	0
58	1909	156.7	0
58	1909	156.8	0
58	1909	156.9	0
58	1909	157	0
58	1909	157.1	0
58	1909	157.2	0
58	1909	157.3	0
58	1909	157.4	0
58	1909	157.5	0
58	1909	157.6	0
58	1909	157.7	0
58	1909	157.8	0
58	1909	157.9	0
58	1909	158	0
58	1909	158.1	0
58	1909	158.2	0
58	1909	158.3	0
58	1909	158.4	0
58	1909	158.5	0
58	1909	158.6	0
58	1909	158.7	0
58	1909	158.8	0
58	1909	158.9	0
58	1909	159	0
58	1909	159.1	0
58	1909	159.2	0
58	1909	159.3	0
58	1909	159.4	0
58	1909	159.5	0
58	1909	159.6	0
58	1909	159.7	0
58	1909	159.8	0
58	1909	159.9	0
58	1909	160	0
58	1909	160.1	0
58	1909	160.2	0
58	1909	160.3	0
58	1909	160.4	0
58	1909	160.5	0
58	1909	160.6	0
58	1909	160.7	0
58	1909	160.8	0
58	1909	160.9	0
58	1909	161	0
58	1909	161.1	0
58	1909	161.2	0
58	1909	161.3	0
58	1909	161.4	0
58	1909	161.5	0
58	1909	161.6	0
58	1909	161.7	0
58	1909	161.8	0
58	1909	161.9	0
58	1909	162	0
58	1909	162.1	0
58	1909	162.2	0
58	1909	162.3	0
58	1909	162.4	0
58	1909	162.5	0
58	1909	162.6	0
58	1909	162.7	0
58	1909	162.8	0
58	1909	162.9	0
58	1909	163	0
58	1909	163.1	0
58	1909	163.2	0
58	1909	163.3	0
58	1909	163.4	0
58	1909	163.5	0
58	1909	163.6	0
58	1909	163.7	0
58	1909	163.8	0
58	1909	163.9	0
58	1909	164	0
58	1909	164.1	0
58	1909	164.2	0
58	1909	164.3	0
58	1909	164.4	0
58	1909	164.5	0
58	1909	164.6	0
58	1909	164.7	0
58	1909	164.8	0
58	1909	164.9	0
58	1909	165	0
58	1909	165.1	0
58	1909	165.2	0
58	1909	165.3	0
58	1909	165.4	0
58	1909	165.5	0
58	1909	165.6	0
58	1909	165.7	0
58	1909	165.8	0
58	1909	165.9	0
58	1909	166	0
58	1909	166.1	0
58	1909	166.2	0
58	1909	166.3	0
58	1909	166.4	0
58	1909	166.5	0
58	1909	166.6	0
58	1909	166.7	0
58	1909	166.8	0
58	1909	166.9	0
58	1909	167	0
58	1909	167.1	0
58	1909	167.2	0
58	1909	167.3	0
58	1909	167.4	0
58	1909	167.5	0
58	1909	167.6	0
58	1909	167.7	0
58	1909	167.8	0
58	1909	167.9	0
58	1909	168	0
58	1909	168.1	0
58	1909	168.2	0
58	1909	168.3	0
58	1909	168.4	0
58	1909	168.5	0
58	1909	168.6	0
58	1909	168.7	0
58	1909	168.8	0
58	1909	168.9	0
58	1909	169	0
58	1909	169.1	0
58	1909	169.2	0
58	1909	169.3	0
58	1909	169.4	0
58	1909	169.5	0
58	1909	169.6	0
58	1909	169.7	0
58	1909	169.8	0
58	1909	169.9	0
58	1909	170	0
58	1909	170.1	0
58	1909	170.2	0
58	1909	170.3	0
58	1909	170.4	0
58	1909	170.5	0
58	1909	170.6	0
58	1909	170.7	0
58	1909	170.8	0
58	1909	170.9	0
58	1909	171	0
58	1909	171.1	0
58	1909	171.2	0
58	1909	171.3	0
58	1909	171.4	0
58	1909	171.5	0
58	1909	171.6	0
58	1909	171.7	0
58	1909	171.8	0
58	1909	171.9	0
58	1909	172	0
58	1909	172.1	0
58	1909	172.2	0
58	1909	172.3	0
58	1909	172.4	0
58	1909	172.5	0
58	1909	172.6	0
58	1909	172.7	0
58	1909	172.8	0
58	1909	172.9	0
58	1909	173	0
58	1909	173.1	0
58	1909	173.2	0
58	1909	173.3	0
58	1909	173.4	0
58	1909	173.5	0
58	1909	173.6	0
58	1909	173.7	0
58	1909	173.8	0
58	1909	173.9	0
58	1909	174	0
58	1909	174.1	0
58	1909	174.2	0
58	1909	174.3	0
58	1909	174.4	0
58	1909	174.5	0
58	1909	174.6	0
58	1909	174.7	0
58	1909	174.8	0
58	1909	174.9	0
58	1909	175	0
58	1909	175.1	0
58	1909	175.2	0
58	1909	175.3	0
58	1909	175.4	0
58	1909	175.5	0
58	1909	175.6	0
58	1909	175.7	0
58	1909	175.8	0
58	1909	175.9	0
58	1909	176	0
58	1909	176.1	0
58	1909	176.2	0
58	1909	176.3	0
58	1909	176.4	0
58	1909	176.5	0
58	1909	176.6	0
58	1909	176.7	0
58	1909	176.8	0
58	1909	176.9	0
58	1909	177	0
58	1909	177.1	0
58	1909	177.2	0
58	1909	177.3	0
58	1909	177.4	0
58	1909	177.5	0
58	1909	177.6	0
58	1909	177.7	0
58	1909	177.8	0
58	1909	177.9	0
58	1909	178	0
58	1909	178.1	0
58	1909	178.2	0
58	1909	178.3	0
58	1909	178.4	0
58	1909	178.5	0
58	1909	178.6	0
58	1909	178.7	0
58	1909	178.8	0
58	1909	178.9	0
58	1909	179	0
58	1909	179.1	0
58	1909	179.2	0
58	1909	179.3	0
58	1909	179.4	0
58	1909	179.5	0
58	1909	179.6	0
58	1909	179.7	0
58	1909	179.8	0
58	1909	179.9	0
58	1909	180	0
58	1909	180.1	0
58	1909	180.2	0
58	1909	180.3	0
58	1909	180.4	0
58	1909	180.5	0
58	1909	180.6	0
58	1909	180.7	0
58	1909	180.8	0
58	1909	180.9	0
58	1909	181	0
58	1909	181.1	0
58	1909	181.2	0
58	1909	181.3	0
58	1909	181.4	0
58	1909	181.5	0
58	1909	181.6	0
58	1909	181.7	0
58	1909	181.8	0
58	1909	181.9	0
58	1909	182	0
58	1909	182.1	0
58	1909	182.2	0
58	1909	182.3	0
58	1909	182.4	0
58	1909	182.5	0
58	1909	182.6	0
58	1909	182.7	0
58	1909	182.8	0
58	1909	182.9	0
58	1909	183	0
58	1909	183.1	0
58	1909	183.2	0
58	1909	183.3	0
58	1909	183.4	0
58	1909	183.5	0
58	1909	183.6	0
58	1909	183.7	0
58	1909	183.8	0
58	1909	183.9	0
58	1909	184	0
58	1909	184.1	0
58	1909	184.2	0
58	1909	184.3	0
58	1909	184.4	0
58	1909	184.5	0
58	1909	184.6	0
58	1909	184.7	0
58	1909	184.8	0
58	1909	184.9	0
58	1909	185	0
58	1909	185.1	0
58	1909	185.2	0
58	1909	185.3	0
58	1909	185.4	0
58	1909	185.5	0
58	1909	185.6	0
58	1909	185.7	0
58	1909	185.75877811228	0

